AMOSTRA/CAP/Trafos.dss
! ==========================================================
! TRANSFORMADORES DE DISTRIBUICAO — gerados de UNTRMT/EQTRMT
! Secundario 1F/2F: 3 enrolamentos com derivacao central
! Neutro no no 4, aterrado em _ATERRAMENTO.dss
! Kv de BT conforme TEN_LIN_SE da BDGD
! ==========================================================
New Transformer.3092165 phases=1 windings=3 Xhl=1.200 Xht=1.200 Xlt=0.600
~ wdg=1 bus=26783-12299059.1 conn=wye Kv=7.9674 Kva=10.0 %R=0.500
~ wdg=2 bus=3092165-12299059v.1.4 conn=wye Kv=0.1100 Kva=10.0 %R=0.500
~ wdg=3 bus=3092165-12299059v.4.2 conn=wye Kv=0.1100 Kva=10.0 %R=0.500
New Transformer.3173266 phases=1 windings=3 Xhl=1.200 Xht=1.200 Xlt=0.600
~ wdg=1 bus=25449-12496108cf.1.2 conn=wye Kv=13.8000 Kva=25.0 %R=0.500
~ wdg=2 bus=3173266-12496108v.1.4 conn=wye Kv=0.1270 Kva=25.0 %R=0.500
~ wdg=3 bus=3173266-12496108v.4.2 conn=wye Kv=0.1270 Kva=25.0 %R=0.500
New Transformer.3172124 phases=1 windings=3 Xhl=1.200 Xht=1.200 Xlt=0.600
~ wdg=1 bus=11924-12823658.1.2 conn=wye Kv=13.8000 Kva=5.0 %R=0.500
~ wdg=2 bus=3172124-12823658v.1.4 conn=wye Kv=0.1270 Kva=5.0 %R=0.500
~ wdg=3 bus=3172124-12823658v.4.2 conn=wye Kv=0.1270 Kva=5.0 %R=0.500
New Transformer.2716158 phases=3 windings=2 Xhl=1.200
~ wdg=1 bus=15682-10561631.1.2.3 conn=delta Kv=13.8 Kva=30.0 %R=0.500
~ wdg=2 bus=2716158-10561632.1.2.3.4 conn=wye Kv=0.2200 Kva=30.0 %R=0.500
New Transformer.2716364 phases=3 windings=2 Xhl=1.200
~ wdg=1 bus=15682-10561650.1.2.3 conn=delta Kv=13.8 Kva=112.5 %R=0.500
~ wdg=2 bus=2716364-10561651.1.2.3.4 conn=wye Kv=0.2200 Kva=112.5 %R=0.500
New Transformer.2716207 phases=1 windings=3 Xhl=1.200 Xht=1.200 Xlt=0.600
~ wdg=1 bus=15682-10561673.3 conn=wye Kv=7.9674 Kva=5.0 %R=0.500
~ wdg=2 bus=2716207-10561673v.1.4 conn=wye Kv=0.1100 Kva=5.0 %R=0.500
~ wdg=3 bus=2716207-10561673v.4.2 conn=wye Kv=0.1100 Kva=5.0 %R=0.500
New Transformer.2716313 phases=3 windings=2 Xhl=1.200
~ wdg=1 bus=15682-10561700.1.2.3 conn=delta Kv=13.8 Kva=45.0 %R=0.500
~ wdg=2 bus=2716313-10561701.1.2.3.4 conn=wye Kv=0.2200 Kva=45.0 %R=0.500
New Transformer.3145605 phases=3 windings=2 Xhl=1.200
~ wdg=1 bus=15682-10561737.1.2.3 conn=delta Kv=13.8 Kva=45.0 %R=0.500
~ wdg=2 bus=3145605-10561738.1.2.3.4 conn=wye Kv=0.2200 Kva=45.0 %R=0.500
New Transformer.2716324 phases=1 windings=3 Xhl=1.200 Xht=1.200 Xlt=0.600
~ wdg=1 bus=15682-10561851.3 conn=wye Kv=7.9674 Kva=5.0 %R=0.500
~ wdg=2 bus=2716324-10561851v.1.4 conn=wye Kv=0.1100 Kva=5.0 %R=0.500
~ wdg=3 bus=2716324-10561851v.4.2 conn=wye Kv=0.1100 Kva=5.0 %R=0.500
New Transformer.2716366 phases=1 windings=3 Xhl=1.200 Xht=1.200 Xlt=0.600
~ wdg=1 bus=15682-10561857.3 conn=wye Kv=7.9674 Kva=5.0 %R=0.500
~ wdg=2 bus=2716366-10561857v.1.4 conn=wye Kv=0.1100 Kva=5.0 %R=0.500
~ wdg=3 bus=2716366-10561857v.4.2 conn=wye Kv=0.1100 Kva=5.0 %R=0.500
New Transformer.2716368 phases=1 windings=3 Xhl=1.200 Xht=1.200 Xlt=0.600
~ wdg=1 bus=15682-10561867.3 conn=wye Kv=7.9674 Kva=10.0 %R=0.500
~ wdg=2 bus=2716368-10561868.1.4 conn=wye Kv=0.1100 Kva=10.0 %R=0.500
~ wdg=3 bus=2716368-10561868.4.2 conn=wye Kv=0.1100 Kva=10.0 %R=0.500
New Transformer.2715888 phases=1 windings=3 Xhl=1.200 Xht=1.200 Xlt=0.600
~ wdg=1 bus=15682-10561876.3 conn=wye Kv=7.9674 Kva=10.0 %R=0.500
~ wdg=2 bus=2715888-10561877.1.4 conn=wye Kv=0.1100 Kva=10.0 %R=0.500
~ wdg=3 bus=2715888-10561877.4.2 conn=wye Kv=0.1100 Kva=10.0 %R=0.500
New Transformer.2715880 phases=1 windings=3 Xhl=1.200 Xht=1.200 Xlt=0.600
~ wdg=1 bus=15682-10561929.2 conn=wye Kv=7.9674 Kva=15.0 %R=0.500
~ wdg=2 bus=2715880-10561929v.1.4 conn=wye Kv=0.1100 Kva=15.0 %R=0.500
~ wdg=3 bus=2715880-10561929v.4.2 conn=wye Kv=0.1100 Kva=15.0 %R=0.500
New Transformer.2716308 phases=1 windings=3 Xhl=1.200 Xht=1.200 Xlt=0.600
~ wdg=1 bus=15682-10561956.3 conn=wye Kv=7.9674 Kva=5.0 %R=0.500
~ wdg=2 bus=2716308-10561956v.1.4 conn=wye Kv=0.1100 Kva=5.0 %R=0.500
~ wdg=3 bus=2716308-10561956v.4.2 conn=wye Kv=0.1100 Kva=5.0 %R=0.500
New Transformer.2716073 phases=1 windings=3 Xhl=1.200 Xht=1.200 Xlt=0.600
~ wdg=1 bus=15682-10561980.2 conn=wye Kv=7.9674 Kva=10.0 %R=0.500
~ wdg=2 bus=2716073-10561980v.1.4 conn=wye Kv=0.1100 Kva=10.0 %R=0.500
~ wdg=3 bus=2716073-10561980v.4.2 conn=wye Kv=0.1100 Kva=10.0 %R=0.500
New Transformer.2716175 phases=1 windings=3 Xhl=1.200 Xht=1.200 Xlt=0.600
~ wdg=1 bus=15682-10561994.1 conn=wye Kv=7.9674 Kva=10.0 %R=0.500
~ wdg=2 bus=2716175-10561994v.1.4 conn=wye Kv=0.1100 Kva=10.0 %R=0.500
~ wdg=3 bus=2716175-10561994v.4.2 conn=wye Kv=0.1100 Kva=10.0 %R=0.500
New Transformer.2716412 phases=1 windings=3 Xhl=1.200 Xht=1.200 Xlt=0.600
~ wdg=1 bus=15682-10562017.2 conn=wye Kv=7.9674 Kva=5.0 %R=0.500
~ wdg=2 bus=2716412-10562017v.1.4 conn=wye Kv=0.1100 Kva=5.0 %R=0.500
~ wdg=3 bus=2716412-10562017v.4.2 conn=wye Kv=0.1100 Kva=5.0 %R=0.500
New Transformer.2716255 phases=1 windings=3 Xhl=1.200 Xht=1.200 Xlt=0.600
~ wdg=1 bus=15682-10562030.1 conn=wye Kv=7.9674 Kva=5.0 %R=0.500
~ wdg=2 bus=2716255-10562030v.1.4 conn=wye Kv=0.1100 Kva=5.0 %R=0.500
~ wdg=3 bus=2716255-10562030v.4.2 conn=wye Kv=0.1100 Kva=5.0 %R=0.500
New Transformer.2716362 phases=1 windings=3 Xhl=1.200 Xht=1.200 Xlt=0.600
~ wdg=1 bus=15682-10562048.3 conn=wye Kv=7.9674 Kva=10.0 %R=0.500
~ wdg=2 bus=2716362-10562049.1.4 conn=wye Kv=0.1100 Kva=10.0 %R=0.500
~ wdg=3 bus=2716362-10562049.4.2 conn=wye Kv=0.1100 Kva=10.0 %R=0.500
New Transformer.2716439 phases=1 windings=3 Xhl=1.200 Xht=1.200 Xlt=0.600
~ wdg=1 bus=15682-10562054.3 conn=wye Kv=7.9674 Kva=10.0 %R=0.500
~ wdg=2 bus=2716439-10562055.1.4 conn=wye Kv=0.1100 Kva=10.0 %R=0.500
~ wdg=3 bus=2716439-10562055.4.2 conn=wye Kv=0.1100 Kva=10.0 %R=0.500
New Transformer.3123461 phases=1 windings=3 Xhl=1.200 Xht=1.200 Xlt=0.600
~ wdg=1 bus=15682-10562061.3 conn=wye Kv=7.9674 Kva=5.0 %R=0.500
~ wdg=2 bus=3123461-10562061v.1.4 conn=wye Kv=0.1100 Kva=5.0 %R=0.500
~ wdg=3 bus=3123461-10562061v.4.2 conn=wye Kv=0.1100 Kva=5.0 %R=0.500
New Transformer.2715923 phases=1 windings=3 Xhl=1.200 Xht=1.200 Xlt=0.600
~ wdg=1 bus=15682-10562069.1 conn=wye Kv=7.9674 Kva=10.0 %R=0.500
~ wdg=2 bus=2715923-10562070.1.4 conn=wye Kv=0.1100 Kva=10.0 %R=0.500
~ wdg=3 bus=2715923-10562070.4.2 conn=wye Kv=0.1100 Kva=10.0 %R=0.500
New Transformer.2716099 phases=3 windings=2 Xhl=1.200
~ wdg=1 bus=15682-10562075.1.2.3 conn=delta Kv=13.8 Kva=15.0 %R=0.500
~ wdg=2 bus=2716099-10562076.1.2.3.4 conn=wye Kv=0.2200 Kva=15.0 %R=0.500
New Transformer.2716463 phases=3 windings=2 Xhl=1.200
~ wdg=1 bus=15682-10562089.1.2.3 conn=delta Kv=13.8 Kva=45.0 %R=0.500
~ wdg=2 bus=2716463-10562090.1.2.3.4 conn=wye Kv=0.2200 Kva=45.0 %R=0.500
New Transformer.2716129 phases=3 windings=2 Xhl=1.200
~ wdg=1 bus=15682-10562099.1.2.3 conn=delta Kv=13.8 Kva=45.0 %R=0.500
~ wdg=2 bus=2716129-10562100.1.2.3.4 conn=wye Kv=0.2200 Kva=45.0 %R=0.500
New Transformer.2716470 phases=3 windings=2 Xhl=1.200
~ wdg=1 bus=15682-10562103.1.2.3 conn=delta Kv=13.8 Kva=75.0 %R=0.500
~ wdg=2 bus=2716470-10562103v.1.2.3.4 conn=wye Kv=0.2200 Kva=75.0 %R=0.500
New Transformer.2716215 phases=3 windings=2 Xhl=1.200
~ wdg=1 bus=15682-10562112.1.2.3 conn=delta Kv=13.8 Kva=30.0 %R=0.500
~ wdg=2 bus=2716215-10562112v.1.2.3.4 conn=wye Kv=0.2200 Kva=30.0 %R=0.500
New Transformer.2716328 phases=1 windings=3 Xhl=1.200 Xht=1.200 Xlt=0.600
~ wdg=1 bus=15682-10562120.3 conn=wye Kv=7.9674 Kva=15.0 %R=0.500
~ wdg=2 bus=2716328-10562120v.1.4 conn=wye Kv=0.1100 Kva=15.0 %R=0.500
~ wdg=3 bus=2716328-10562120v.4.2 conn=wye Kv=0.1100 Kva=15.0 %R=0.500
New Transformer.2716306 phases=1 windings=3 Xhl=1.200 Xht=1.200 Xlt=0.600
~ wdg=1 bus=15682-10562133.3 conn=wye Kv=7.9674 Kva=5.0 %R=0.500
~ wdg=2 bus=2716306-10562133v.1.4 conn=wye Kv=0.1100 Kva=5.0 %R=0.500
~ wdg=3 bus=2716306-10562133v.4.2 conn=wye Kv=0.1100 Kva=5.0 %R=0.500
New Transformer.2716302 phases=1 windings=3 Xhl=1.200 Xht=1.200 Xlt=0.600
~ wdg=1 bus=15682-10562135.1 conn=wye Kv=7.9674 Kva=5.0 %R=0.500
~ wdg=2 bus=2716302-10562135v.1.4 conn=wye Kv=0.1100 Kva=5.0 %R=0.500
~ wdg=3 bus=2716302-10562135v.4.2 conn=wye Kv=0.1100 Kva=5.0 %R=0.500
New Transformer.2716391 phases=1 windings=3 Xhl=1.200 Xht=1.200 Xlt=0.600
~ wdg=1 bus=15682-10562136.1 conn=wye Kv=7.9674 Kva=5.0 %R=0.500
~ wdg=2 bus=2716391-10562136v.1.4 conn=wye Kv=0.1100 Kva=5.0 %R=0.500
~ wdg=3 bus=2716391-10562136v.4.2 conn=wye Kv=0.1100 Kva=5.0 %R=0.500
New Transformer.2716246 phases=1 windings=3 Xhl=1.200 Xht=1.200 Xlt=0.600
~ wdg=1 bus=15682-10562137.1 conn=wye Kv=7.9674 Kva=5.0 %R=0.500
~ wdg=2 bus=2716246-10562137v.1.4 conn=wye Kv=0.1100 Kva=5.0 %R=0.500
~ wdg=3 bus=2716246-10562137v.4.2 conn=wye Kv=0.1100 Kva=5.0 %R=0.500
New Transformer.2716383 phases=1 windings=3 Xhl=1.200 Xht=1.200 Xlt=0.600
~ wdg=1 bus=15682-10562138.3 conn=wye Kv=7.9674 Kva=5.0 %R=0.500
~ wdg=2 bus=2716383-10562138v.1.4 conn=wye Kv=0.1100 Kva=5.0 %R=0.500
~ wdg=3 bus=2716383-10562138v.4.2 conn=wye Kv=0.1100 Kva=5.0 %R=0.500
New Transformer.2716091 phases=1 windings=3 Xhl=1.200 Xht=1.200 Xlt=0.600
~ wdg=1 bus=15682-10562140.3 conn=wye Kv=7.9674 Kva=10.0 %R=0.500
~ wdg=2 bus=2716091-10562140v.1.4 conn=wye Kv=0.1100 Kva=10.0 %R=0.500
~ wdg=3 bus=2716091-10562140v.4.2 conn=wye Kv=0.1100 Kva=10.0 %R=0.500
New Transformer.2716420 phases=1 windings=3 Xhl=1.200 Xht=1.200 Xlt=0.600
~ wdg=1 bus=15682-10562141.3 conn=wye Kv=7.9674 Kva=5.0 %R=0.500
~ wdg=2 bus=2716420-10562142.1.4 conn=wye Kv=0.1100 Kva=5.0 %R=0.500
~ wdg=3 bus=2716420-10562142.4.2 conn=wye Kv=0.1100 Kva=5.0 %R=0.500
New Transformer.2716066 phases=3 windings=2 Xhl=1.200
~ wdg=1 bus=15682-10562144.1.2.3 conn=delta Kv=13.8 Kva=15.0 %R=0.500
~ wdg=2 bus=2716066-10562144v.1.2.3.4 conn=wye Kv=0.2200 Kva=15.0 %R=0.500
New Transformer.2716169 phases=3 windings=2 Xhl=1.200
~ wdg=1 bus=15682-10562233.1.2.3 conn=delta Kv=13.8 Kva=45.0 %R=0.500
~ wdg=2 bus=2716169-10562234.1.2.3.4 conn=wye Kv=0.2200 Kva=45.0 %R=0.500
New Transformer.2716247 phases=3 windings=2 Xhl=1.200
~ wdg=1 bus=15682-10562240.1.2.3 conn=delta Kv=13.8 Kva=45.0 %R=0.500
~ wdg=2 bus=2716247-10562241.1.2.3.4 conn=wye Kv=0.2200 Kva=45.0 %R=0.500
New Transformer.2716330 phases=3 windings=2 Xhl=1.200
~ wdg=1 bus=15682-10562252.1.2.3 conn=delta Kv=13.8 Kva=75.0 %R=0.500
~ wdg=2 bus=2716330-10562253.1.2.3.4 conn=wye Kv=0.2200 Kva=75.0 %R=0.500
New Transformer.2716445 phases=1 windings=3 Xhl=1.200 Xht=1.200 Xlt=0.600
~ wdg=1 bus=15682-10562369.3 conn=wye Kv=7.9674 Kva=10.0 %R=0.500
~ wdg=2 bus=2716445-10562369v.1.4 conn=wye Kv=0.1100 Kva=10.0 %R=0.500
~ wdg=3 bus=2716445-10562369v.4.2 conn=wye Kv=0.1100 Kva=10.0 %R=0.500
New Transformer.2716064 phases=1 windings=3 Xhl=1.200 Xht=1.200 Xlt=0.600
~ wdg=1 bus=15682-10562372.3 conn=wye Kv=7.9674 Kva=15.0 %R=0.500
~ wdg=2 bus=2716064-10562373.1.4 conn=wye Kv=0.1100 Kva=15.0 %R=0.500
~ wdg=3 bus=2716064-10562373.4.2 conn=wye Kv=0.1100 Kva=15.0 %R=0.500
New Transformer.2716083 phases=1 windings=3 Xhl=1.200 Xht=1.200 Xlt=0.600
~ wdg=1 bus=15682-10562375.3 conn=wye Kv=7.9674 Kva=10.0 %R=0.500
~ wdg=2 bus=2716083-10562376.1.4 conn=wye Kv=0.1100 Kva=10.0 %R=0.500
~ wdg=3 bus=2716083-10562376.4.2 conn=wye Kv=0.1100 Kva=10.0 %R=0.500
New Transformer.2716123 phases=1 windings=3 Xhl=1.200 Xht=1.200 Xlt=0.600
~ wdg=1 bus=15682-10562532.2 conn=wye Kv=7.9674 Kva=10.0 %R=0.500
~ wdg=2 bus=2716123-10562532v.1.4 conn=wye Kv=0.1100 Kva=10.0 %R=0.500
~ wdg=3 bus=2716123-10562532v.4.2 conn=wye Kv=0.1100 Kva=10.0 %R=0.500
New Transformer.2716040 phases=1 windings=3 Xhl=1.200 Xht=1.200 Xlt=0.600
~ wdg=1 bus=15682-10562542.2 conn=wye Kv=7.9674 Kva=10.0 %R=0.500
~ wdg=2 bus=2716040-10562543.1.4 conn=wye Kv=0.1100 Kva=10.0 %R=0.500
~ wdg=3 bus=2716040-10562543.4.2 conn=wye Kv=0.1100 Kva=10.0 %R=0.500
New Transformer.2716311 phases=1 windings=3 Xhl=1.200 Xht=1.200 Xlt=0.600
~ wdg=1 bus=15682-10562580.1 conn=wye Kv=7.9674 Kva=15.0 %R=0.500
~ wdg=2 bus=2716311-10562581.1.4 conn=wye Kv=0.1100 Kva=15.0 %R=0.500
~ wdg=3 bus=2716311-10562581.4.2 conn=wye Kv=0.1100 Kva=15.0 %R=0.500
New Transformer.2716119 phases=1 windings=3 Xhl=1.200 Xht=1.200 Xlt=0.600
~ wdg=1 bus=15682-10562598.3 conn=wye Kv=7.9674 Kva=10.0 %R=0.500
~ wdg=2 bus=2716119-10562599.1.4 conn=wye Kv=0.1100 Kva=10.0 %R=0.500
~ wdg=3 bus=2716119-10562599.4.2 conn=wye Kv=0.1100 Kva=10.0 %R=0.500
New Transformer.2716367 phases=1 windings=3 Xhl=1.200 Xht=1.200 Xlt=0.600
~ wdg=1 bus=15682-10562617.3 conn=wye Kv=7.9674 Kva=5.0 %R=0.500
~ wdg=2 bus=2716367-10562617v.1.4 conn=wye Kv=0.1100 Kva=5.0 %R=0.500
~ wdg=3 bus=2716367-10562617v.4.2 conn=wye Kv=0.1100 Kva=5.0 %R=0.500
New Transformer.2716483 phases=1 windings=3 Xhl=1.200 Xht=1.200 Xlt=0.600
~ wdg=1 bus=15682-10562646.3 conn=wye Kv=7.9674 Kva=10.0 %R=0.500
~ wdg=2 bus=2716483-10562646v.1.4 conn=wye Kv=0.1100 Kva=10.0 %R=0.500
~ wdg=3 bus=2716483-10562646v.4.2 conn=wye Kv=0.1100 Kva=10.0 %R=0.500
New Transformer.2716110 phases=1 windings=3 Xhl=1.200 Xht=1.200 Xlt=0.600
~ wdg=1 bus=15682-10562712.1 conn=wye Kv=7.9674 Kva=10.0 %R=0.500
~ wdg=2 bus=2716110-10562713.1.4 conn=wye Kv=0.1100 Kva=10.0 %R=0.500
~ wdg=3 bus=2716110-10562713.4.2 conn=wye Kv=0.1100 Kva=10.0 %R=0.500
New Transformer.2716092 phases=1 windings=3 Xhl=1.200 Xht=1.200 Xlt=0.600
~ wdg=1 bus=15682-10562732.2 conn=wye Kv=7.9674 Kva=5.0 %R=0.500
~ wdg=2 bus=2716092-10562732v.1.4 conn=wye Kv=0.1100 Kva=5.0 %R=0.500
~ wdg=3 bus=2716092-10562732v.4.2 conn=wye Kv=0.1100 Kva=5.0 %R=0.500
New Transformer.2716118 phases=1 windings=3 Xhl=1.200 Xht=1.200 Xlt=0.600
~ wdg=1 bus=15682-10562736.2 conn=wye Kv=7.9674 Kva=10.0 %R=0.500
~ wdg=2 bus=2716118-10562737.1.4 conn=wye Kv=0.1100 Kva=10.0 %R=0.500
~ wdg=3 bus=2716118-10562737.4.2 conn=wye Kv=0.1100 Kva=10.0 %R=0.500
New Transformer.2716303 phases=1 windings=3 Xhl=1.200 Xht=1.200 Xlt=0.600
~ wdg=1 bus=15682-10562749.2 conn=wye Kv=7.9674 Kva=5.0 %R=0.500
~ wdg=2 bus=2716303-10562749v.1.4 conn=wye Kv=0.1100 Kva=5.0 %R=0.500
~ wdg=3 bus=2716303-10562749v.4.2 conn=wye Kv=0.1100 Kva=5.0 %R=0.500
New Transformer.2716294 phases=1 windings=3 Xhl=1.200 Xht=1.200 Xlt=0.600
~ wdg=1 bus=15682-10562754.1 conn=wye Kv=7.9674 Kva=10.0 %R=0.500
~ wdg=2 bus=2716294-10562755.1.4 conn=wye Kv=0.1100 Kva=10.0 %R=0.500
~ wdg=3 bus=2716294-10562755.4.2 conn=wye Kv=0.1100 Kva=10.0 %R=0.500
New Transformer.2716013 phases=1 windings=3 Xhl=1.200 Xht=1.200 Xlt=0.600
~ wdg=1 bus=15682-10562781.2 conn=wye Kv=7.9674 Kva=10.0 %R=0.500
~ wdg=2 bus=2716013-10562781v.1.4 conn=wye Kv=0.1100 Kva=10.0 %R=0.500
~ wdg=3 bus=2716013-10562781v.4.2 conn=wye Kv=0.1100 Kva=10.0 %R=0.500
New Transformer.2716136 phases=1 windings=3 Xhl=1.200 Xht=1.200 Xlt=0.600
~ wdg=1 bus=15682-10562793.1 conn=wye Kv=7.9674 Kva=10.0 %R=0.500
~ wdg=2 bus=2716136-10562794.1.4 conn=wye Kv=0.1100 Kva=10.0 %R=0.500
~ wdg=3 bus=2716136-10562794.4.2 conn=wye Kv=0.1100 Kva=10.0 %R=0.500
New Transformer.2716341 phases=1 windings=3 Xhl=1.200 Xht=1.200 Xlt=0.600
~ wdg=1 bus=15682-10562800.1 conn=wye Kv=7.9674 Kva=10.0 %R=0.500
~ wdg=2 bus=2716341-10562801.1.4 conn=wye Kv=0.1100 Kva=10.0 %R=0.500
~ wdg=3 bus=2716341-10562801.4.2 conn=wye Kv=0.1100 Kva=10.0 %R=0.500
New Transformer.2715907 phases=1 windings=3 Xhl=1.200 Xht=1.200 Xlt=0.600
~ wdg=1 bus=15682-10562818.3 conn=wye Kv=7.9674 Kva=10.0 %R=0.500
~ wdg=2 bus=2715907-10562818v.1.4 conn=wye Kv=0.1100 Kva=10.0 %R=0.500
~ wdg=3 bus=2715907-10562818v.4.2 conn=wye Kv=0.1100 Kva=10.0 %R=0.500
New Transformer.2716218 phases=1 windings=3 Xhl=1.200 Xht=1.200 Xlt=0.600
~ wdg=1 bus=15682-10562822.3 conn=wye Kv=7.9674 Kva=10.0 %R=0.500
~ wdg=2 bus=2716218-10562823.1.4 conn=wye Kv=0.1100 Kva=10.0 %R=0.500
~ wdg=3 bus=2716218-10562823.4.2 conn=wye Kv=0.1100 Kva=10.0 %R=0.500
New Transformer.2716079 phases=1 windings=3 Xhl=1.200 Xht=1.200 Xlt=0.600
~ wdg=1 bus=15682-10562825.2 conn=wye Kv=7.9674 Kva=10.0 %R=0.500
~ wdg=2 bus=2716079-10562826.1.4 conn=wye Kv=0.1100 Kva=10.0 %R=0.500
~ wdg=3 bus=2716079-10562826.4.2 conn=wye Kv=0.1100 Kva=10.0 %R=0.500
New Transformer.2715946 phases=1 windings=3 Xhl=1.200 Xht=1.200 Xlt=0.600
~ wdg=1 bus=15682-10562828.2 conn=wye Kv=7.9674 Kva=10.0 %R=0.500
~ wdg=2 bus=2715946-10562828v.1.4 conn=wye Kv=0.1100 Kva=10.0 %R=0.500
~ wdg=3 bus=2715946-10562828v.4.2 conn=wye Kv=0.1100 Kva=10.0 %R=0.500
New Transformer.2715943 phases=1 windings=3 Xhl=1.200 Xht=1.200 Xlt=0.600
~ wdg=1 bus=15682-10562831.3 conn=wye Kv=7.9674 Kva=10.0 %R=0.500
~ wdg=2 bus=2715943-10562832.1.4 conn=wye Kv=0.1100 Kva=10.0 %R=0.500
~ wdg=3 bus=2715943-10562832.4.2 conn=wye Kv=0.1100 Kva=10.0 %R=0.500
New Transformer.2716147 phases=1 windings=3 Xhl=1.200 Xht=1.200 Xlt=0.600
~ wdg=1 bus=15682-10562833.3 conn=wye Kv=7.9674 Kva=5.0 %R=0.500
~ wdg=2 bus=2716147-10562833v.1.4 conn=wye Kv=0.1100 Kva=5.0 %R=0.500
~ wdg=3 bus=2716147-10562833v.4.2 conn=wye Kv=0.1100 Kva=5.0 %R=0.500
New Transformer.2716120 phases=1 windings=3 Xhl=1.200 Xht=1.200 Xlt=0.600
~ wdg=1 bus=15682-10562834.1 conn=wye Kv=7.9674 Kva=5.0 %R=0.500
~ wdg=2 bus=2716120-10562834v.1.4 conn=wye Kv=0.1100 Kva=5.0 %R=0.500
~ wdg=3 bus=2716120-10562834v.4.2 conn=wye Kv=0.1100 Kva=5.0 %R=0.500
New Transformer.2716228 phases=1 windings=3 Xhl=1.200 Xht=1.200 Xlt=0.600
~ wdg=1 bus=15682-10562836.1 conn=wye Kv=7.9674 Kva=5.0 %R=0.500
~ wdg=2 bus=2716228-10562836v.1.4 conn=wye Kv=0.1100 Kva=5.0 %R=0.500
~ wdg=3 bus=2716228-10562836v.4.2 conn=wye Kv=0.1100 Kva=5.0 %R=0.500
New Transformer.2715920 phases=1 windings=3 Xhl=1.200 Xht=1.200 Xlt=0.600
~ wdg=1 bus=15682-10562837.1 conn=wye Kv=7.9674 Kva=5.0 %R=0.500
~ wdg=2 bus=2715920-10562837v.1.4 conn=wye Kv=0.1100 Kva=5.0 %R=0.500
~ wdg=3 bus=2715920-10562837v.4.2 conn=wye Kv=0.1100 Kva=5.0 %R=0.500
New Transformer.2716413 phases=1 windings=3 Xhl=1.200 Xht=1.200 Xlt=0.600
~ wdg=1 bus=15682-10562839.2 conn=wye Kv=7.9674 Kva=10.0 %R=0.500
~ wdg=2 bus=2716413-10562840.1.4 conn=wye Kv=0.1100 Kva=10.0 %R=0.500
~ wdg=3 bus=2716413-10562840.4.2 conn=wye Kv=0.1100 Kva=10.0 %R=0.500
New Transformer.2716021 phases=1 windings=3 Xhl=1.200 Xht=1.200 Xlt=0.600
~ wdg=1 bus=15682-10562841.3 conn=wye Kv=7.9674 Kva=5.0 %R=0.500
~ wdg=2 bus=2716021-10562841v.1.4 conn=wye Kv=0.1100 Kva=5.0 %R=0.500
~ wdg=3 bus=2716021-10562841v.4.2 conn=wye Kv=0.1100 Kva=5.0 %R=0.500
New Transformer.2716156 phases=1 windings=3 Xhl=1.200 Xht=1.200 Xlt=0.600
~ wdg=1 bus=15682-10562854.2 conn=wye Kv=7.9674 Kva=5.0 %R=0.500
~ wdg=2 bus=2716156-10562854v.1.4 conn=wye Kv=0.1100 Kva=5.0 %R=0.500
~ wdg=3 bus=2716156-10562854v.4.2 conn=wye Kv=0.1100 Kva=5.0 %R=0.500
New Transformer.2716321 phases=1 windings=3 Xhl=1.200 Xht=1.200 Xlt=0.600
~ wdg=1 bus=15682-10562869.1 conn=wye Kv=7.9674 Kva=5.0 %R=0.500
~ wdg=2 bus=2716321-10562869v.1.4 conn=wye Kv=0.1100 Kva=5.0 %R=0.500
~ wdg=3 bus=2716321-10562869v.4.2 conn=wye Kv=0.1100 Kva=5.0 %R=0.500
New Transformer.2715904 phases=1 windings=3 Xhl=1.200 Xht=1.200 Xlt=0.600
~ wdg=1 bus=15682-10562882.1 conn=wye Kv=7.9674 Kva=10.0 %R=0.500
~ wdg=2 bus=2715904-10562882v.1.4 conn=wye Kv=0.1100 Kva=10.0 %R=0.500
~ wdg=3 bus=2715904-10562882v.4.2 conn=wye Kv=0.1100 Kva=10.0 %R=0.500
New Transformer.2715942 phases=1 windings=3 Xhl=1.200 Xht=1.200 Xlt=0.600
~ wdg=1 bus=15682-10562893.3 conn=wye Kv=7.9674 Kva=5.0 %R=0.500
~ wdg=2 bus=2715942-10562893v.1.4 conn=wye Kv=0.1100 Kva=5.0 %R=0.500
~ wdg=3 bus=2715942-10562893v.4.2 conn=wye Kv=0.1100 Kva=5.0 %R=0.500
New Transformer.2716139 phases=1 windings=3 Xhl=1.200 Xht=1.200 Xlt=0.600
~ wdg=1 bus=15682-10562897.3 conn=wye Kv=7.9674 Kva=15.0 %R=0.500
~ wdg=2 bus=2716139-10562897v.1.4 conn=wye Kv=0.1100 Kva=15.0 %R=0.500
~ wdg=3 bus=2716139-10562897v.4.2 conn=wye Kv=0.1100 Kva=15.0 %R=0.500
New Transformer.2716150 phases=3 windings=2 Xhl=1.200
~ wdg=1 bus=15682-10562905.1.2.3 conn=delta Kv=13.8 Kva=45.0 %R=0.500
~ wdg=2 bus=2716150-10562906.1.2.3.4 conn=wye Kv=0.2200 Kva=45.0 %R=0.500
New Transformer.2716479 phases=3 windings=2 Xhl=1.200
~ wdg=1 bus=15682-10562919.1.2.3 conn=delta Kv=13.8 Kva=112.5 %R=0.500
~ wdg=2 bus=2716479-10562920.1.2.3.4 conn=wye Kv=0.2200 Kva=112.5 %R=0.500
New Transformer.2716242 phases=3 windings=2 Xhl=1.200
~ wdg=1 bus=15682-10562923.1.2.3 conn=delta Kv=13.8 Kva=15.0 %R=0.500
~ wdg=2 bus=2716242-10562923v.1.2.3.4 conn=wye Kv=0.2200 Kva=15.0 %R=0.500
New Transformer.2716116 phases=1 windings=3 Xhl=1.200 Xht=1.200 Xlt=0.600
~ wdg=1 bus=15682-10562926.3 conn=wye Kv=7.9674 Kva=15.0 %R=0.500
~ wdg=2 bus=2716116-10562927.1.4 conn=wye Kv=0.1100 Kva=15.0 %R=0.500
~ wdg=3 bus=2716116-10562927.4.2 conn=wye Kv=0.1100 Kva=15.0 %R=0.500
New Transformer.2715906 phases=1 windings=3 Xhl=1.200 Xht=1.200 Xlt=0.600
~ wdg=1 bus=15682-10562933.3 conn=wye Kv=7.9674 Kva=10.0 %R=0.500
~ wdg=2 bus=2715906-10562934.1.4 conn=wye Kv=0.1100 Kva=10.0 %R=0.500
~ wdg=3 bus=2715906-10562934.4.2 conn=wye Kv=0.1100 Kva=10.0 %R=0.500
New Transformer.2716080 phases=3 windings=2 Xhl=1.200
~ wdg=1 bus=15682-10562936.1.2.3 conn=delta Kv=13.8 Kva=45.0 %R=0.500
~ wdg=2 bus=2716080-10562937.1.2.3.4 conn=wye Kv=0.2200 Kva=45.0 %R=0.500
New Transformer.2716005 phases=1 windings=3 Xhl=1.200 Xht=1.200 Xlt=0.600
~ wdg=1 bus=15682-10562938.1 conn=wye Kv=7.9674 Kva=5.0 %R=0.500
~ wdg=2 bus=2716005-10562938v.1.4 conn=wye Kv=0.1100 Kva=5.0 %R=0.500
~ wdg=3 bus=2716005-10562938v.4.2 conn=wye Kv=0.1100 Kva=5.0 %R=0.500
New Transformer.2716382 phases=1 windings=3 Xhl=1.200 Xht=1.200 Xlt=0.600
~ wdg=1 bus=15682-10562939.2 conn=wye Kv=7.9674 Kva=5.0 %R=0.500
~ wdg=2 bus=2716382-10562939v.1.4 conn=wye Kv=0.1100 Kva=5.0 %R=0.500
~ wdg=3 bus=2716382-10562939v.4.2 conn=wye Kv=0.1100 Kva=5.0 %R=0.500
New Transformer.2716034 phases=1 windings=3 Xhl=1.200 Xht=1.200 Xlt=0.600
~ wdg=1 bus=15682-10562940.2 conn=wye Kv=7.9674 Kva=5.0 %R=0.500
~ wdg=2 bus=2716034-10562940v.1.4 conn=wye Kv=0.1100 Kva=5.0 %R=0.500
~ wdg=3 bus=2716034-10562940v.4.2 conn=wye Kv=0.1100 Kva=5.0 %R=0.500
New Transformer.2716134 phases=1 windings=3 Xhl=1.200 Xht=1.200 Xlt=0.600
~ wdg=1 bus=15682-10562941.2 conn=wye Kv=7.9674 Kva=10.0 %R=0.500
~ wdg=2 bus=2716134-10562942.1.4 conn=wye Kv=0.1100 Kva=10.0 %R=0.500
~ wdg=3 bus=2716134-10562942.4.2 conn=wye Kv=0.1100 Kva=10.0 %R=0.500
New Transformer.2716359 phases=1 windings=3 Xhl=1.200 Xht=1.200 Xlt=0.600
~ wdg=1 bus=15682-10562943.1 conn=wye Kv=7.9674 Kva=5.0 %R=0.500
~ wdg=2 bus=2716359-10562944.1.4 conn=wye Kv=0.1100 Kva=5.0 %R=0.500
~ wdg=3 bus=2716359-10562944.4.2 conn=wye Kv=0.1100 Kva=5.0 %R=0.500
New Transformer.2715961 phases=1 windings=3 Xhl=1.200 Xht=1.200 Xlt=0.600
~ wdg=1 bus=15682-10562945.2 conn=wye Kv=7.9674 Kva=10.0 %R=0.500
~ wdg=2 bus=2715961-10562945v.1.4 conn=wye Kv=0.1100 Kva=10.0 %R=0.500
~ wdg=3 bus=2715961-10562945v.4.2 conn=wye Kv=0.1100 Kva=10.0 %R=0.500
New Transformer.2716035 phases=1 windings=3 Xhl=1.200 Xht=1.200 Xlt=0.600
~ wdg=1 bus=15682-10562947.2 conn=wye Kv=7.9674 Kva=5.0 %R=0.500
~ wdg=2 bus=2716035-10562947v.1.4 conn=wye Kv=0.1100 Kva=5.0 %R=0.500
~ wdg=3 bus=2716035-10562947v.4.2 conn=wye Kv=0.1100 Kva=5.0 %R=0.500
New Transformer.2715965 phases=1 windings=3 Xhl=1.200 Xht=1.200 Xlt=0.600
~ wdg=1 bus=15682-10562949.3 conn=wye Kv=7.9674 Kva=5.0 %R=0.500
~ wdg=2 bus=2715965-10562949v.1.4 conn=wye Kv=0.1100 Kva=5.0 %R=0.500
~ wdg=3 bus=2715965-10562949v.4.2 conn=wye Kv=0.1100 Kva=5.0 %R=0.500
New Transformer.2715937 phases=1 windings=3 Xhl=1.200 Xht=1.200 Xlt=0.600
~ wdg=1 bus=15682-10562950.1 conn=wye Kv=7.9674 Kva=5.0 %R=0.500
~ wdg=2 bus=2715937-10562950v.1.4 conn=wye Kv=0.1100 Kva=5.0 %R=0.500
~ wdg=3 bus=2715937-10562950v.4.2 conn=wye Kv=0.1100 Kva=5.0 %R=0.500
New Transformer.2716222 phases=3 windings=2 Xhl=1.200
~ wdg=1 bus=15682-10562955.1.2.3 conn=delta Kv=13.8 Kva=30.0 %R=0.500
~ wdg=2 bus=2716222-10562955v.1.2.3.4 conn=wye Kv=0.2200 Kva=30.0 %R=0.500
New Transformer.2715970 phases=3 windings=2 Xhl=1.200
~ wdg=1 bus=15682-10562956.1.2.3 conn=delta Kv=13.8 Kva=45.0 %R=0.500
~ wdg=2 bus=2715970-10562957.1.2.3.4 conn=wye Kv=0.2200 Kva=45.0 %R=0.500
New Transformer.2715894 phases=3 windings=2 Xhl=1.200
~ wdg=1 bus=15682-10563015.1.2.3 conn=delta Kv=13.8 Kva=112.5 %R=0.500
~ wdg=2 bus=2715894-10563015v.1.2.3.4 conn=wye Kv=0.2200 Kva=112.5 %R=0.500
New Transformer.2716093 phases=3 windings=2 Xhl=1.200
~ wdg=1 bus=15682-10563174.1.2.3 conn=delta Kv=13.8 Kva=75.0 %R=0.500
~ wdg=2 bus=2716093-10563175.1.2.3.4 conn=wye Kv=0.2200 Kva=75.0 %R=0.500
New Transformer.2716041 phases=1 windings=3 Xhl=1.200 Xht=1.200 Xlt=0.600
~ wdg=1 bus=15682-10563178.1 conn=wye Kv=7.9674 Kva=10.0 %R=0.500
~ wdg=2 bus=2716041-10563178v.1.4 conn=wye Kv=0.1100 Kva=10.0 %R=0.500
~ wdg=3 bus=2716041-10563178v.4.2 conn=wye Kv=0.1100 Kva=10.0 %R=0.500
New Transformer.2715910 phases=1 windings=3 Xhl=1.200 Xht=1.200 Xlt=0.600
~ wdg=1 bus=15682-10563185.3 conn=wye Kv=7.9674 Kva=15.0 %R=0.500
~ wdg=2 bus=2715910-10563186.1.4 conn=wye Kv=0.1100 Kva=15.0 %R=0.500
~ wdg=3 bus=2715910-10563186.4.2 conn=wye Kv=0.1100 Kva=15.0 %R=0.500
New Transformer.2716289 phases=1 windings=3 Xhl=1.200 Xht=1.200 Xlt=0.600
~ wdg=1 bus=15682-10563187.3 conn=wye Kv=7.9674 Kva=5.0 %R=0.500
~ wdg=2 bus=2716289-10563187v.1.4 conn=wye Kv=0.1100 Kva=5.0 %R=0.500
~ wdg=3 bus=2716289-10563187v.4.2 conn=wye Kv=0.1100 Kva=5.0 %R=0.500
New Transformer.2716263 phases=1 windings=3 Xhl=1.200 Xht=1.200 Xlt=0.600
~ wdg=1 bus=15682-10563188.3 conn=wye Kv=7.9674 Kva=15.0 %R=0.500
~ wdg=2 bus=2716263-10563189.1.4 conn=wye Kv=0.1100 Kva=15.0 %R=0.500
~ wdg=3 bus=2716263-10563189.4.2 conn=wye Kv=0.1100 Kva=15.0 %R=0.500
New Transformer.2716403 phases=1 windings=3 Xhl=1.200 Xht=1.200 Xlt=0.600
~ wdg=1 bus=15682-10563346.3 conn=wye Kv=7.9674 Kva=5.0 %R=0.500
~ wdg=2 bus=2716403-10563346v.1.4 conn=wye Kv=0.1100 Kva=5.0 %R=0.500
~ wdg=3 bus=2716403-10563346v.4.2 conn=wye Kv=0.1100 Kva=5.0 %R=0.500
New Transformer.3158784 phases=1 windings=3 Xhl=1.200 Xht=1.200 Xlt=0.600
~ wdg=1 bus=15682-10563375.2 conn=wye Kv=7.9674 Kva=5.0 %R=0.500
~ wdg=2 bus=3158784-12707878.1.4 conn=wye Kv=0.1100 Kva=5.0 %R=0.500
~ wdg=3 bus=3158784-12707878.4.2 conn=wye Kv=0.1100 Kva=5.0 %R=0.500
New Transformer.2716396 phases=1 windings=3 Xhl=1.200 Xht=1.200 Xlt=0.600
~ wdg=1 bus=15682-10563407.1 conn=wye Kv=7.9674 Kva=10.0 %R=0.500
~ wdg=2 bus=2716396-10563408.1.4 conn=wye Kv=0.1100 Kva=10.0 %R=0.500
~ wdg=3 bus=2716396-10563408.4.2 conn=wye Kv=0.1100 Kva=10.0 %R=0.500
New Transformer.2716282 phases=1 windings=3 Xhl=1.200 Xht=1.200 Xlt=0.600
~ wdg=1 bus=15682-10563450.1 conn=wye Kv=7.9674 Kva=10.0 %R=0.500
~ wdg=2 bus=2716282-10563451.1.4 conn=wye Kv=0.1100 Kva=10.0 %R=0.500
~ wdg=3 bus=2716282-10563451.4.2 conn=wye Kv=0.1100 Kva=10.0 %R=0.500
New Transformer.2716025 phases=1 windings=3 Xhl=1.200 Xht=1.200 Xlt=0.600
~ wdg=1 bus=15682-10563467.1 conn=wye Kv=7.9674 Kva=5.0 %R=0.500
~ wdg=2 bus=2716025-10563467v.1.4 conn=wye Kv=0.1100 Kva=5.0 %R=0.500
~ wdg=3 bus=2716025-10563467v.4.2 conn=wye Kv=0.1100 Kva=5.0 %R=0.500
New Transformer.2716469 phases=1 windings=3 Xhl=1.200 Xht=1.200 Xlt=0.600
~ wdg=1 bus=15682-10563468.1 conn=wye Kv=7.9674 Kva=5.0 %R=0.500
~ wdg=2 bus=2716469-10563468v.1.4 conn=wye Kv=0.1100 Kva=5.0 %R=0.500
~ wdg=3 bus=2716469-10563468v.4.2 conn=wye Kv=0.1100 Kva=5.0 %R=0.500
New Transformer.2715978 phases=1 windings=3 Xhl=1.200 Xht=1.200 Xlt=0.600
~ wdg=1 bus=15682-10563475.1 conn=wye Kv=7.9674 Kva=10.0 %R=0.500
~ wdg=2 bus=2715978-10563475v.1.4 conn=wye Kv=0.1100 Kva=10.0 %R=0.500
~ wdg=3 bus=2715978-10563475v.4.2 conn=wye Kv=0.1100 Kva=10.0 %R=0.500
New Transformer.2715963 phases=1 windings=3 Xhl=1.200 Xht=1.200 Xlt=0.600
~ wdg=1 bus=15682-10563479.1 conn=wye Kv=7.9674 Kva=10.0 %R=0.500
~ wdg=2 bus=2715963-10563480.1.4 conn=wye Kv=0.1100 Kva=10.0 %R=0.500
~ wdg=3 bus=2715963-10563480.4.2 conn=wye Kv=0.1100 Kva=10.0 %R=0.500
New Transformer.2716245 phases=1 windings=3 Xhl=1.200 Xht=1.200 Xlt=0.600
~ wdg=1 bus=15682-10563492.2 conn=wye Kv=7.9674 Kva=10.0 %R=0.500
~ wdg=2 bus=2716245-10563493.1.4 conn=wye Kv=0.1100 Kva=10.0 %R=0.500
~ wdg=3 bus=2716245-10563493.4.2 conn=wye Kv=0.1100 Kva=10.0 %R=0.500
New Transformer.2716111 phases=1 windings=3 Xhl=1.200 Xht=1.200 Xlt=0.600
~ wdg=1 bus=15682-10563609.3 conn=wye Kv=7.9674 Kva=5.0 %R=0.500
~ wdg=2 bus=2716111-10563610.1.4 conn=wye Kv=0.1100 Kva=5.0 %R=0.500
~ wdg=3 bus=2716111-10563610.4.2 conn=wye Kv=0.1100 Kva=5.0 %R=0.500
New Transformer.2715879 phases=1 windings=3 Xhl=1.200 Xht=1.200 Xlt=0.600
~ wdg=1 bus=15682-10563613.1 conn=wye Kv=7.9674 Kva=5.0 %R=0.500
~ wdg=2 bus=2715879-10563613v.1.4 conn=wye Kv=0.1100 Kva=5.0 %R=0.500
~ wdg=3 bus=2715879-10563613v.4.2 conn=wye Kv=0.1100 Kva=5.0 %R=0.500
New Transformer.3123926 phases=3 windings=2 Xhl=1.200
~ wdg=1 bus=15682-10563806.1.2.3 conn=delta Kv=13.8 Kva=75.0 %R=0.500
~ wdg=2 bus=3123926-10563806v.1.2.3.4 conn=wye Kv=0.2200 Kva=75.0 %R=0.500
New Transformer.2716239 phases=1 windings=3 Xhl=1.200 Xht=1.200 Xlt=0.600
~ wdg=1 bus=15682-10563850.2 conn=wye Kv=7.9674 Kva=10.0 %R=0.500
~ wdg=2 bus=2716239-10563850v.1.4 conn=wye Kv=0.1100 Kva=10.0 %R=0.500
~ wdg=3 bus=2716239-10563850v.4.2 conn=wye Kv=0.1100 Kva=10.0 %R=0.500
New Transformer.2716113 phases=1 windings=3 Xhl=1.200 Xht=1.200 Xlt=0.600
~ wdg=1 bus=15682-10563852.2 conn=wye Kv=7.9674 Kva=10.0 %R=0.500
~ wdg=2 bus=2716113-10563852v.1.4 conn=wye Kv=0.1100 Kva=10.0 %R=0.500
~ wdg=3 bus=2716113-10563852v.4.2 conn=wye Kv=0.1100 Kva=10.0 %R=0.500
New Transformer.2716133 phases=1 windings=3 Xhl=1.200 Xht=1.200 Xlt=0.600
~ wdg=1 bus=15682-10563935.1 conn=wye Kv=7.9674 Kva=5.0 %R=0.500
~ wdg=2 bus=2716133-10563935v.1.4 conn=wye Kv=0.1100 Kva=5.0 %R=0.500
~ wdg=3 bus=2716133-10563935v.4.2 conn=wye Kv=0.1100 Kva=5.0 %R=0.500
New Transformer.2715893 phases=1 windings=3 Xhl=1.200 Xht=1.200 Xlt=0.600
~ wdg=1 bus=15682-10563956.2 conn=wye Kv=7.9674 Kva=10.0 %R=0.500
~ wdg=2 bus=2715893-10563957.1.4 conn=wye Kv=0.1100 Kva=10.0 %R=0.500
~ wdg=3 bus=2715893-10563957.4.2 conn=wye Kv=0.1100 Kva=10.0 %R=0.500
New Transformer.2715983 phases=1 windings=3 Xhl=1.200 Xht=1.200 Xlt=0.600
~ wdg=1 bus=15682-10563975.1 conn=wye Kv=7.9674 Kva=5.0 %R=0.500
~ wdg=2 bus=2715983-10563975v.1.4 conn=wye Kv=0.1100 Kva=5.0 %R=0.500
~ wdg=3 bus=2715983-10563975v.4.2 conn=wye Kv=0.1100 Kva=5.0 %R=0.500
New Transformer.2715962 phases=1 windings=3 Xhl=1.200 Xht=1.200 Xlt=0.600
~ wdg=1 bus=15682-10563983.2 conn=wye Kv=7.9674 Kva=10.0 %R=0.500
~ wdg=2 bus=2715962-10563984.1.4 conn=wye Kv=0.1100 Kva=10.0 %R=0.500
~ wdg=3 bus=2715962-10563984.4.2 conn=wye Kv=0.1100 Kva=10.0 %R=0.500
New Transformer.2715939 phases=1 windings=3 Xhl=1.200 Xht=1.200 Xlt=0.600
~ wdg=1 bus=15682-10563991.2 conn=wye Kv=7.9674 Kva=5.0 %R=0.500
~ wdg=2 bus=2715939-10563991v.1.4 conn=wye Kv=0.1100 Kva=5.0 %R=0.500
~ wdg=3 bus=2715939-10563991v.4.2 conn=wye Kv=0.1100 Kva=5.0 %R=0.500
New Transformer.2716466 phases=3 windings=2 Xhl=1.200
~ wdg=1 bus=15682-10564137.1.2.3 conn=delta Kv=13.8 Kva=112.5 %R=0.500
~ wdg=2 bus=2716466-10564138.1.2.3.4 conn=wye Kv=0.2200 Kva=112.5 %R=0.500
New Transformer.2716082 phases=1 windings=3 Xhl=1.200 Xht=1.200 Xlt=0.600
~ wdg=1 bus=15682-10564163.3 conn=wye Kv=7.9674 Kva=15.0 %R=0.500
~ wdg=2 bus=2716082-10564164.1.4 conn=wye Kv=0.1100 Kva=15.0 %R=0.500
~ wdg=3 bus=2716082-10564164.4.2 conn=wye Kv=0.1100 Kva=15.0 %R=0.500
New Transformer.2715886 phases=1 windings=3 Xhl=1.200 Xht=1.200 Xlt=0.600
~ wdg=1 bus=15682-10564166.3 conn=wye Kv=7.9674 Kva=10.0 %R=0.500
~ wdg=2 bus=2715886-10564167.1.4 conn=wye Kv=0.1100 Kva=10.0 %R=0.500
~ wdg=3 bus=2715886-10564167.4.2 conn=wye Kv=0.1100 Kva=10.0 %R=0.500
New Transformer.3201122 phases=1 windings=3 Xhl=1.200 Xht=1.200 Xlt=0.600
~ wdg=1 bus=15682-10564223.3 conn=wye Kv=7.9674 Kva=5.0 %R=0.500
~ wdg=2 bus=3201122-10564223v.1.4 conn=wye Kv=0.1100 Kva=5.0 %R=0.500
~ wdg=3 bus=3201122-10564223v.4.2 conn=wye Kv=0.1100 Kva=5.0 %R=0.500
New Transformer.2716196 phases=1 windings=3 Xhl=1.200 Xht=1.200 Xlt=0.600
~ wdg=1 bus=15682-10564282.1 conn=wye Kv=7.9674 Kva=15.0 %R=0.500
~ wdg=2 bus=2716196-10564283.1.4 conn=wye Kv=0.1100 Kva=15.0 %R=0.500
~ wdg=3 bus=2716196-10564283.4.2 conn=wye Kv=0.1100 Kva=15.0 %R=0.500
New Transformer.2716345 phases=1 windings=3 Xhl=1.200 Xht=1.200 Xlt=0.600
~ wdg=1 bus=15682-10564303.3 conn=wye Kv=7.9674 Kva=10.0 %R=0.500
~ wdg=2 bus=2716345-10564303v.1.4 conn=wye Kv=0.1100 Kva=10.0 %R=0.500
~ wdg=3 bus=2716345-10564303v.4.2 conn=wye Kv=0.1100 Kva=10.0 %R=0.500
New Transformer.2716161 phases=1 windings=3 Xhl=1.200 Xht=1.200 Xlt=0.600
~ wdg=1 bus=15682-10564307.3 conn=wye Kv=7.9674 Kva=10.0 %R=0.500
~ wdg=2 bus=2716161-10564308.1.4 conn=wye Kv=0.1100 Kva=10.0 %R=0.500
~ wdg=3 bus=2716161-10564308.4.2 conn=wye Kv=0.1100 Kva=10.0 %R=0.500
New Transformer.2716047 phases=1 windings=3 Xhl=1.200 Xht=1.200 Xlt=0.600
~ wdg=1 bus=15682-10564351.1 conn=wye Kv=7.9674 Kva=10.0 %R=0.500
~ wdg=2 bus=2716047-10564352.1.4 conn=wye Kv=0.1100 Kva=10.0 %R=0.500
~ wdg=3 bus=2716047-10564352.4.2 conn=wye Kv=0.1100 Kva=10.0 %R=0.500
New Transformer.2716322 phases=1 windings=3 Xhl=1.200 Xht=1.200 Xlt=0.600
~ wdg=1 bus=15682-10564388.1 conn=wye Kv=7.9674 Kva=10.0 %R=0.500
~ wdg=2 bus=2716322-10564389.1.4 conn=wye Kv=0.1100 Kva=10.0 %R=0.500
~ wdg=3 bus=2716322-10564389.4.2 conn=wye Kv=0.1100 Kva=10.0 %R=0.500
New Transformer.2716280 phases=1 windings=3 Xhl=1.200 Xht=1.200 Xlt=0.600
~ wdg=1 bus=15682-10564390.1 conn=wye Kv=7.9674 Kva=10.0 %R=0.500
~ wdg=2 bus=2716280-10564391.1.4 conn=wye Kv=0.1100 Kva=10.0 %R=0.500
~ wdg=3 bus=2716280-10564391.4.2 conn=wye Kv=0.1100 Kva=10.0 %R=0.500
New Transformer.2716477 phases=1 windings=3 Xhl=1.200 Xht=1.200 Xlt=0.600
~ wdg=1 bus=15682-10564416.2 conn=wye Kv=7.9674 Kva=5.0 %R=0.500
~ wdg=2 bus=2716477-10564417.1.4 conn=wye Kv=0.1100 Kva=5.0 %R=0.500
~ wdg=3 bus=2716477-10564417.4.2 conn=wye Kv=0.1100 Kva=5.0 %R=0.500
New Transformer.2716435 phases=1 windings=3 Xhl=1.200 Xht=1.200 Xlt=0.600
~ wdg=1 bus=15682-10564433.1 conn=wye Kv=7.9674 Kva=10.0 %R=0.500
~ wdg=2 bus=2716435-10564434.1.4 conn=wye Kv=0.1100 Kva=10.0 %R=0.500
~ wdg=3 bus=2716435-10564434.4.2 conn=wye Kv=0.1100 Kva=10.0 %R=0.500
New Transformer.2716309 phases=1 windings=3 Xhl=1.200 Xht=1.200 Xlt=0.600
~ wdg=1 bus=15682-10564443.1 conn=wye Kv=7.9674 Kva=5.0 %R=0.500
~ wdg=2 bus=2716309-10564443v.1.4 conn=wye Kv=0.1100 Kva=5.0 %R=0.500
~ wdg=3 bus=2716309-10564443v.4.2 conn=wye Kv=0.1100 Kva=5.0 %R=0.500
New Transformer.2716017 phases=1 windings=3 Xhl=1.200 Xht=1.200 Xlt=0.600
~ wdg=1 bus=15682-10564449.1 conn=wye Kv=7.9674 Kva=5.0 %R=0.500
~ wdg=2 bus=2716017-10564449v.1.4 conn=wye Kv=0.1100 Kva=5.0 %R=0.500
~ wdg=3 bus=2716017-10564449v.4.2 conn=wye Kv=0.1100 Kva=5.0 %R=0.500
New Transformer.2716000 phases=1 windings=3 Xhl=1.200 Xht=1.200 Xlt=0.600
~ wdg=1 bus=15682-10564457.3 conn=wye Kv=7.9674 Kva=5.0 %R=0.500
~ wdg=2 bus=2716000-10564457v.1.4 conn=wye Kv=0.1100 Kva=5.0 %R=0.500
~ wdg=3 bus=2716000-10564457v.4.2 conn=wye Kv=0.1100 Kva=5.0 %R=0.500
New Transformer.2716022 phases=1 windings=3 Xhl=1.200 Xht=1.200 Xlt=0.600
~ wdg=1 bus=15682-10564491.3 conn=wye Kv=7.9674 Kva=10.0 %R=0.500
~ wdg=2 bus=2716022-10564492.1.4 conn=wye Kv=0.1100 Kva=10.0 %R=0.500
~ wdg=3 bus=2716022-10564492.4.2 conn=wye Kv=0.1100 Kva=10.0 %R=0.500
New Transformer.2716310 phases=1 windings=3 Xhl=1.200 Xht=1.200 Xlt=0.600
~ wdg=1 bus=15682-10564493.3 conn=wye Kv=7.9674 Kva=10.0 %R=0.500
~ wdg=2 bus=2716310-10564493v.1.4 conn=wye Kv=0.1100 Kva=10.0 %R=0.500
~ wdg=3 bus=2716310-10564493v.4.2 conn=wye Kv=0.1100 Kva=10.0 %R=0.500
New Transformer.2716062 phases=1 windings=3 Xhl=1.200 Xht=1.200 Xlt=0.600
~ wdg=1 bus=15682-10564563.3 conn=wye Kv=7.9674 Kva=15.0 %R=0.500
~ wdg=2 bus=2716062-10564564.1.4 conn=wye Kv=0.1100 Kva=15.0 %R=0.500
~ wdg=3 bus=2716062-10564564.4.2 conn=wye Kv=0.1100 Kva=15.0 %R=0.500
New Transformer.2716076 phases=1 windings=3 Xhl=1.200 Xht=1.200 Xlt=0.600
~ wdg=1 bus=15682-10564570.1 conn=wye Kv=7.9674 Kva=25.0 %R=0.500
~ wdg=2 bus=2716076-10564571.1.4 conn=wye Kv=0.1100 Kva=25.0 %R=0.500
~ wdg=3 bus=2716076-10564571.4.2 conn=wye Kv=0.1100 Kva=25.0 %R=0.500
New Transformer.2716335 phases=1 windings=3 Xhl=1.200 Xht=1.200 Xlt=0.600
~ wdg=1 bus=15682-10564572.3 conn=wye Kv=7.9674 Kva=5.0 %R=0.500
~ wdg=2 bus=2716335-10564572v.1.4 conn=wye Kv=0.1100 Kva=5.0 %R=0.500
~ wdg=3 bus=2716335-10564572v.4.2 conn=wye Kv=0.1100 Kva=5.0 %R=0.500
New Transformer.2716402 phases=1 windings=3 Xhl=1.200 Xht=1.200 Xlt=0.600
~ wdg=1 bus=15682-10564573.3 conn=wye Kv=7.9674 Kva=5.0 %R=0.500
~ wdg=2 bus=2716402-10564573v.1.4 conn=wye Kv=0.1100 Kva=5.0 %R=0.500
~ wdg=3 bus=2716402-10564573v.4.2 conn=wye Kv=0.1100 Kva=5.0 %R=0.500
New Transformer.2716254 phases=1 windings=3 Xhl=1.200 Xht=1.200 Xlt=0.600
~ wdg=1 bus=15682-10564574.1 conn=wye Kv=7.9674 Kva=10.0 %R=0.500
~ wdg=2 bus=2716254-10564574v.1.4 conn=wye Kv=0.1100 Kva=10.0 %R=0.500
~ wdg=3 bus=2716254-10564574v.4.2 conn=wye Kv=0.1100 Kva=10.0 %R=0.500
New Transformer.2715938 phases=1 windings=3 Xhl=1.200 Xht=1.200 Xlt=0.600
~ wdg=1 bus=15682-10564575.2 conn=wye Kv=7.9674 Kva=10.0 %R=0.500
~ wdg=2 bus=2715938-10564576.1.4 conn=wye Kv=0.1100 Kva=10.0 %R=0.500
~ wdg=3 bus=2715938-10564576.4.2 conn=wye Kv=0.1100 Kva=10.0 %R=0.500
New Transformer.2716295 phases=1 windings=3 Xhl=1.200 Xht=1.200 Xlt=0.600
~ wdg=1 bus=15682-10564577.1 conn=wye Kv=7.9674 Kva=5.0 %R=0.500
~ wdg=2 bus=2716295-10564577v.1.4 conn=wye Kv=0.1100 Kva=5.0 %R=0.500
~ wdg=3 bus=2716295-10564577v.4.2 conn=wye Kv=0.1100 Kva=5.0 %R=0.500
New Transformer.2716344 phases=1 windings=3 Xhl=1.200 Xht=1.200 Xlt=0.600
~ wdg=1 bus=15682-10564578.1 conn=wye Kv=7.9674 Kva=10.0 %R=0.500
~ wdg=2 bus=2716344-11396632.1.4 conn=wye Kv=0.1100 Kva=10.0 %R=0.500
~ wdg=3 bus=2716344-11396632.4.2 conn=wye Kv=0.1100 Kva=10.0 %R=0.500
New Transformer.2715980 phases=1 windings=3 Xhl=1.200 Xht=1.200 Xlt=0.600
~ wdg=1 bus=15682-10564579.2 conn=wye Kv=7.9674 Kva=5.0 %R=0.500
~ wdg=2 bus=2715980-10564579v.1.4 conn=wye Kv=0.1100 Kva=5.0 %R=0.500
~ wdg=3 bus=2715980-10564579v.4.2 conn=wye Kv=0.1100 Kva=5.0 %R=0.500
New Transformer.2715912 phases=1 windings=3 Xhl=1.200 Xht=1.200 Xlt=0.600
~ wdg=1 bus=15682-10564588.2 conn=wye Kv=7.9674 Kva=10.0 %R=0.500
~ wdg=2 bus=2715912-10564589.1.4 conn=wye Kv=0.1100 Kva=10.0 %R=0.500
~ wdg=3 bus=2715912-10564589.4.2 conn=wye Kv=0.1100 Kva=10.0 %R=0.500
New Transformer.2716388 phases=3 windings=2 Xhl=1.200
~ wdg=1 bus=15682-10564590.1.2.3 conn=delta Kv=13.8 Kva=45.0 %R=0.500
~ wdg=2 bus=2716388-10564591.1.2.3.4 conn=wye Kv=0.2200 Kva=45.0 %R=0.500
New Transformer.2716183 phases=3 windings=2 Xhl=1.200
~ wdg=1 bus=15682-10564592.1.2.3 conn=delta Kv=13.8 Kva=30.0 %R=0.500
~ wdg=2 bus=2716183-10564592v.1.2.3.4 conn=wye Kv=0.2200 Kva=30.0 %R=0.500
New Transformer.2715929 phases=1 windings=3 Xhl=1.200 Xht=1.200 Xlt=0.600
~ wdg=1 bus=15682-10564595.1 conn=wye Kv=7.9674 Kva=5.0 %R=0.500
~ wdg=2 bus=2715929-10564595v.1.4 conn=wye Kv=0.1100 Kva=5.0 %R=0.500
~ wdg=3 bus=2715929-10564595v.4.2 conn=wye Kv=0.1100 Kva=5.0 %R=0.500
New Transformer.2716085 phases=3 windings=2 Xhl=1.200
~ wdg=1 bus=15682-10564596.1.2.3 conn=delta Kv=13.8 Kva=45.0 %R=0.500
~ wdg=2 bus=2716085-10564597.1.2.3.4 conn=wye Kv=0.2200 Kva=45.0 %R=0.500
New Transformer.2716394 phases=1 windings=3 Xhl=1.200 Xht=1.200 Xlt=0.600
~ wdg=1 bus=15682-10564737.1 conn=wye Kv=7.9674 Kva=15.0 %R=0.500
~ wdg=2 bus=2716394-10564738.1.4 conn=wye Kv=0.1100 Kva=15.0 %R=0.500
~ wdg=3 bus=2716394-10564738.4.2 conn=wye Kv=0.1100 Kva=15.0 %R=0.500
New Transformer.2716232 phases=1 windings=3 Xhl=1.200 Xht=1.200 Xlt=0.600
~ wdg=1 bus=15682-10564762.3 conn=wye Kv=7.9674 Kva=5.0 %R=0.500
~ wdg=2 bus=2716232-10564762v.1.4 conn=wye Kv=0.1100 Kva=5.0 %R=0.500
~ wdg=3 bus=2716232-10564762v.4.2 conn=wye Kv=0.1100 Kva=5.0 %R=0.500
New Transformer.2716358 phases=1 windings=3 Xhl=1.200 Xht=1.200 Xlt=0.600
~ wdg=1 bus=15682-10564825.1 conn=wye Kv=7.9674 Kva=10.0 %R=0.500
~ wdg=2 bus=2716358-10564826.1.4 conn=wye Kv=0.1100 Kva=10.0 %R=0.500
~ wdg=3 bus=2716358-10564826.4.2 conn=wye Kv=0.1100 Kva=10.0 %R=0.500
New Transformer.2716307 phases=1 windings=3 Xhl=1.200 Xht=1.200 Xlt=0.600
~ wdg=1 bus=15682-10564839.2 conn=wye Kv=7.9674 Kva=10.0 %R=0.500
~ wdg=2 bus=2716307-10564840.1.4 conn=wye Kv=0.1100 Kva=10.0 %R=0.500
~ wdg=3 bus=2716307-10564840.4.2 conn=wye Kv=0.1100 Kva=10.0 %R=0.500
New Transformer.2716176 phases=1 windings=3 Xhl=1.200 Xht=1.200 Xlt=0.600
~ wdg=1 bus=15682-10564858.2 conn=wye Kv=7.9674 Kva=5.0 %R=0.500
~ wdg=2 bus=2716176-10564859.1.4 conn=wye Kv=0.1100 Kva=5.0 %R=0.500
~ wdg=3 bus=2716176-10564859.4.2 conn=wye Kv=0.1100 Kva=5.0 %R=0.500
New Transformer.2716227 phases=1 windings=3 Xhl=1.200 Xht=1.200 Xlt=0.600
~ wdg=1 bus=15682-10564867.1 conn=wye Kv=7.9674 Kva=10.0 %R=0.500
~ wdg=2 bus=2716227-10564867v.1.4 conn=wye Kv=0.1100 Kva=10.0 %R=0.500
~ wdg=3 bus=2716227-10564867v.4.2 conn=wye Kv=0.1100 Kva=10.0 %R=0.500
New Transformer.2716229 phases=1 windings=3 Xhl=1.200 Xht=1.200 Xlt=0.600
~ wdg=1 bus=15682-10564874.1 conn=wye Kv=7.9674 Kva=10.0 %R=0.500
~ wdg=2 bus=2716229-10564875.1.4 conn=wye Kv=0.1100 Kva=10.0 %R=0.500
~ wdg=3 bus=2716229-10564875.4.2 conn=wye Kv=0.1100 Kva=10.0 %R=0.500
New Transformer.2716371 phases=1 windings=3 Xhl=1.200 Xht=1.200 Xlt=0.600
~ wdg=1 bus=15682-10564912.3 conn=wye Kv=7.9674 Kva=5.0 %R=0.500
~ wdg=2 bus=2716371-10564912v.1.4 conn=wye Kv=0.1100 Kva=5.0 %R=0.500
~ wdg=3 bus=2716371-10564912v.4.2 conn=wye Kv=0.1100 Kva=5.0 %R=0.500
New Transformer.2716459 phases=1 windings=3 Xhl=1.200 Xht=1.200 Xlt=0.600
~ wdg=1 bus=15682-10564919.3 conn=wye Kv=7.9674 Kva=5.0 %R=0.500
~ wdg=2 bus=2716459-10564919v.1.4 conn=wye Kv=0.1100 Kva=5.0 %R=0.500
~ wdg=3 bus=2716459-10564919v.4.2 conn=wye Kv=0.1100 Kva=5.0 %R=0.500
New Transformer.2716170 phases=3 windings=2 Xhl=1.200
~ wdg=1 bus=15682-10564948.1.2.3 conn=delta Kv=13.8 Kva=45.0 %R=0.500
~ wdg=2 bus=2716170-10564949.1.2.3.4 conn=wye Kv=0.2200 Kva=45.0 %R=0.500
New Transformer.2715908 phases=3 windings=2 Xhl=1.200
~ wdg=1 bus=15682-10564963.1.2.3 conn=delta Kv=13.8 Kva=15.0 %R=0.500
~ wdg=2 bus=2715908-10564963v.1.2.3.4 conn=wye Kv=0.2200 Kva=15.0 %R=0.500
New Transformer.2715984 phases=3 windings=2 Xhl=1.200
~ wdg=1 bus=15682-10564964.1.2.3 conn=delta Kv=13.8 Kva=45.0 %R=0.500
~ wdg=2 bus=2715984-10564965.1.2.3.4 conn=wye Kv=0.2200 Kva=45.0 %R=0.500
New Transformer.2716365 phases=3 windings=2 Xhl=1.200
~ wdg=1 bus=15682-10564966.1.2.3 conn=delta Kv=13.8 Kva=112.5 %R=0.500
~ wdg=2 bus=2716365-10564967.1.2.3.4 conn=wye Kv=0.2200 Kva=112.5 %R=0.500
New Transformer.2716126 phases=1 windings=3 Xhl=1.200 Xht=1.200 Xlt=0.600
~ wdg=1 bus=15682-10565061.2 conn=wye Kv=7.9674 Kva=5.0 %R=0.500
~ wdg=2 bus=2716126-10565061v.1.4 conn=wye Kv=0.1100 Kva=5.0 %R=0.500
~ wdg=3 bus=2716126-10565061v.4.2 conn=wye Kv=0.1100 Kva=5.0 %R=0.500
New Transformer.2716048 phases=1 windings=3 Xhl=1.200 Xht=1.200 Xlt=0.600
~ wdg=1 bus=15682-10565066.2 conn=wye Kv=7.9674 Kva=10.0 %R=0.500
~ wdg=2 bus=2716048-10565067.1.4 conn=wye Kv=0.1100 Kva=10.0 %R=0.500
~ wdg=3 bus=2716048-10565067.4.2 conn=wye Kv=0.1100 Kva=10.0 %R=0.500
New Transformer.2716189 phases=1 windings=3 Xhl=1.200 Xht=1.200 Xlt=0.600
~ wdg=1 bus=15682-10565102.2 conn=wye Kv=7.9674 Kva=5.0 %R=0.500
~ wdg=2 bus=2716189-10565102v.1.4 conn=wye Kv=0.1100 Kva=5.0 %R=0.500
~ wdg=3 bus=2716189-10565102v.4.2 conn=wye Kv=0.1100 Kva=5.0 %R=0.500
New Transformer.2716055 phases=1 windings=3 Xhl=1.200 Xht=1.200 Xlt=0.600
~ wdg=1 bus=15682-10565116.1 conn=wye Kv=7.9674 Kva=5.0 %R=0.500
~ wdg=2 bus=2716055-10565117.1.4 conn=wye Kv=0.1100 Kva=5.0 %R=0.500
~ wdg=3 bus=2716055-10565117.4.2 conn=wye Kv=0.1100 Kva=5.0 %R=0.500
New Transformer.2716436 phases=1 windings=3 Xhl=1.200 Xht=1.200 Xlt=0.600
~ wdg=1 bus=15682-10565120.2 conn=wye Kv=7.9674 Kva=5.0 %R=0.500
~ wdg=2 bus=2716436-10565120v.1.4 conn=wye Kv=0.1100 Kva=5.0 %R=0.500
~ wdg=3 bus=2716436-10565120v.4.2 conn=wye Kv=0.1100 Kva=5.0 %R=0.500
New Transformer.2716489 phases=1 windings=3 Xhl=1.200 Xht=1.200 Xlt=0.600
~ wdg=1 bus=15682-10565131.1 conn=wye Kv=7.9674 Kva=5.0 %R=0.500
~ wdg=2 bus=2716489-10565131v.1.4 conn=wye Kv=0.1100 Kva=5.0 %R=0.500
~ wdg=3 bus=2716489-10565131v.4.2 conn=wye Kv=0.1100 Kva=5.0 %R=0.500
New Transformer.2716478 phases=1 windings=3 Xhl=1.200 Xht=1.200 Xlt=0.600
~ wdg=1 bus=15682-10565137.3 conn=wye Kv=7.9674 Kva=10.0 %R=0.500
~ wdg=2 bus=2716478-10565138.1.4 conn=wye Kv=0.1100 Kva=10.0 %R=0.500
~ wdg=3 bus=2716478-10565138.4.2 conn=wye Kv=0.1100 Kva=10.0 %R=0.500
New Transformer.2716340 phases=1 windings=3 Xhl=1.200 Xht=1.200 Xlt=0.600
~ wdg=1 bus=15682-10565149.1 conn=wye Kv=7.9674 Kva=5.0 %R=0.500
~ wdg=2 bus=2716340-10565149v.1.4 conn=wye Kv=0.1100 Kva=5.0 %R=0.500
~ wdg=3 bus=2716340-10565149v.4.2 conn=wye Kv=0.1100 Kva=5.0 %R=0.500
New Transformer.2716438 phases=1 windings=3 Xhl=1.200 Xht=1.200 Xlt=0.600
~ wdg=1 bus=15682-10565172.3 conn=wye Kv=7.9674 Kva=10.0 %R=0.500
~ wdg=2 bus=2716438-10565173.1.4 conn=wye Kv=0.1100 Kva=10.0 %R=0.500
~ wdg=3 bus=2716438-10565173.4.2 conn=wye Kv=0.1100 Kva=10.0 %R=0.500
New Transformer.2716361 phases=1 windings=3 Xhl=1.200 Xht=1.200 Xlt=0.600
~ wdg=1 bus=15682-10565186.1 conn=wye Kv=7.9674 Kva=5.0 %R=0.500
~ wdg=2 bus=2716361-10565187.1.4 conn=wye Kv=0.1100 Kva=5.0 %R=0.500
~ wdg=3 bus=2716361-10565187.4.2 conn=wye Kv=0.1100 Kva=5.0 %R=0.500
New Transformer.2716244 phases=1 windings=3 Xhl=1.200 Xht=1.200 Xlt=0.600
~ wdg=1 bus=15682-10565202.3 conn=wye Kv=7.9674 Kva=10.0 %R=0.500
~ wdg=2 bus=2716244-10565202v.1.4 conn=wye Kv=0.1100 Kva=10.0 %R=0.500
~ wdg=3 bus=2716244-10565202v.4.2 conn=wye Kv=0.1100 Kva=10.0 %R=0.500
New Transformer.2716008 phases=3 windings=2 Xhl=1.200
~ wdg=1 bus=15682-10565210.1.2.3 conn=delta Kv=13.8 Kva=45.0 %R=0.500
~ wdg=2 bus=2716008-10565211.1.2.3.4 conn=wye Kv=0.2200 Kva=45.0 %R=0.500
New Transformer.2715986 phases=3 windings=2 Xhl=1.200
~ wdg=1 bus=15682-10565212.1.2.3 conn=delta Kv=13.8 Kva=45.0 %R=0.500
~ wdg=2 bus=2715986-10565213.1.2.3.4 conn=wye Kv=0.2200 Kva=45.0 %R=0.500
New Transformer.2716054 phases=1 windings=3 Xhl=1.200 Xht=1.200 Xlt=0.600
~ wdg=1 bus=15682-10565220.1 conn=wye Kv=7.9674 Kva=5.0 %R=0.500
~ wdg=2 bus=2716054-10565221.1.4 conn=wye Kv=0.1100 Kva=5.0 %R=0.500
~ wdg=3 bus=2716054-10565221.4.2 conn=wye Kv=0.1100 Kva=5.0 %R=0.500
New Transformer.2715940 phases=1 windings=3 Xhl=1.200 Xht=1.200 Xlt=0.600
~ wdg=1 bus=15682-10565224.2 conn=wye Kv=7.9674 Kva=15.0 %R=0.500
~ wdg=2 bus=2715940-10565225.1.4 conn=wye Kv=0.1100 Kva=15.0 %R=0.500
~ wdg=3 bus=2715940-10565225.4.2 conn=wye Kv=0.1100 Kva=15.0 %R=0.500
New Transformer.2715922 phases=1 windings=3 Xhl=1.200 Xht=1.200 Xlt=0.600
~ wdg=1 bus=15682-10565228.1 conn=wye Kv=7.9674 Kva=5.0 %R=0.500
~ wdg=2 bus=2715922-10565228v.1.4 conn=wye Kv=0.1100 Kva=5.0 %R=0.500
~ wdg=3 bus=2715922-10565228v.4.2 conn=wye Kv=0.1100 Kva=5.0 %R=0.500
New Transformer.2716243 phases=3 windings=2 Xhl=1.200
~ wdg=1 bus=15682-10565231.1.2.3 conn=delta Kv=13.8 Kva=75.0 %R=0.500
~ wdg=2 bus=2716243-10565231v.1.2.3.4 conn=wye Kv=0.2200 Kva=75.0 %R=0.500
New Transformer.2716216 phases=3 windings=2 Xhl=1.200
~ wdg=1 bus=15682-10565234.1.2.3 conn=delta Kv=13.8 Kva=45.0 %R=0.500
~ wdg=2 bus=2716216-10565235.1.2.3.4 conn=wye Kv=0.2200 Kva=45.0 %R=0.500
New Transformer.2716201 phases=3 windings=2 Xhl=1.200
~ wdg=1 bus=15682-10565238.1.2.3 conn=delta Kv=13.8 Kva=45.0 %R=0.500
~ wdg=2 bus=2716201-10565239.1.2.3.4 conn=wye Kv=0.2200 Kva=45.0 %R=0.500
New Transformer.2715882 phases=1 windings=3 Xhl=1.200 Xht=1.200 Xlt=0.600
~ wdg=1 bus=15682-10565375.1 conn=wye Kv=7.9674 Kva=10.0 %R=0.500
~ wdg=2 bus=2715882-10565376.1.4 conn=wye Kv=0.1100 Kva=10.0 %R=0.500
~ wdg=3 bus=2715882-10565376.4.2 conn=wye Kv=0.1100 Kva=10.0 %R=0.500
New Transformer.2716484 phases=3 windings=2 Xhl=1.200
~ wdg=1 bus=15682-10565378.1.2.3 conn=delta Kv=13.8 Kva=45.0 %R=0.500
~ wdg=2 bus=2716484-10565379.1.2.3.4 conn=wye Kv=0.2200 Kva=45.0 %R=0.500
New Transformer.2716415 phases=1 windings=3 Xhl=1.200 Xht=1.200 Xlt=0.600
~ wdg=1 bus=15682-10565382.1 conn=wye Kv=7.9674 Kva=15.0 %R=0.500
~ wdg=2 bus=2716415-10565383.1.4 conn=wye Kv=0.1100 Kva=15.0 %R=0.500
~ wdg=3 bus=2716415-10565383.4.2 conn=wye Kv=0.1100 Kva=15.0 %R=0.500
New Transformer.2716046 phases=1 windings=3 Xhl=1.200 Xht=1.200 Xlt=0.600
~ wdg=1 bus=15682-10565385.3 conn=wye Kv=7.9674 Kva=5.0 %R=0.500
~ wdg=2 bus=2716046-10565385v.1.4 conn=wye Kv=0.1100 Kva=5.0 %R=0.500
~ wdg=3 bus=2716046-10565385v.4.2 conn=wye Kv=0.1100 Kva=5.0 %R=0.500
New Transformer.2716144 phases=1 windings=3 Xhl=1.200 Xht=1.200 Xlt=0.600
~ wdg=1 bus=15682-10565387.2 conn=wye Kv=7.9674 Kva=5.0 %R=0.500
~ wdg=2 bus=2716144-10565387v.1.4 conn=wye Kv=0.1100 Kva=5.0 %R=0.500
~ wdg=3 bus=2716144-10565387v.4.2 conn=wye Kv=0.1100 Kva=5.0 %R=0.500
New Transformer.2715881 phases=1 windings=3 Xhl=1.200 Xht=1.200 Xlt=0.600
~ wdg=1 bus=15682-10565390.1 conn=wye Kv=7.9674 Kva=5.0 %R=0.500
~ wdg=2 bus=2715881-10565391.1.4 conn=wye Kv=0.1100 Kva=5.0 %R=0.500
~ wdg=3 bus=2715881-10565391.4.2 conn=wye Kv=0.1100 Kva=5.0 %R=0.500
New Transformer.2715921 phases=1 windings=3 Xhl=1.200 Xht=1.200 Xlt=0.600
~ wdg=1 bus=15682-10565392.2 conn=wye Kv=7.9674 Kva=10.0 %R=0.500
~ wdg=2 bus=2715921-10565392v.1.4 conn=wye Kv=0.1100 Kva=10.0 %R=0.500
~ wdg=3 bus=2715921-10565392v.4.2 conn=wye Kv=0.1100 Kva=10.0 %R=0.500
New Transformer.2716404 phases=1 windings=3 Xhl=1.200 Xht=1.200 Xlt=0.600
~ wdg=1 bus=15682-10565393.2 conn=wye Kv=7.9674 Kva=15.0 %R=0.500
~ wdg=2 bus=2716404-10565394.1.4 conn=wye Kv=0.1100 Kva=15.0 %R=0.500
~ wdg=3 bus=2716404-10565394.4.2 conn=wye Kv=0.1100 Kva=15.0 %R=0.500
New Transformer.2716421 phases=1 windings=3 Xhl=1.200 Xht=1.200 Xlt=0.600
~ wdg=1 bus=15682-10565396.3 conn=wye Kv=7.9674 Kva=10.0 %R=0.500
~ wdg=2 bus=2716421-10565396v.1.4 conn=wye Kv=0.1100 Kva=10.0 %R=0.500
~ wdg=3 bus=2716421-10565396v.4.2 conn=wye Kv=0.1100 Kva=10.0 %R=0.500
New Transformer.2716010 phases=1 windings=3 Xhl=1.200 Xht=1.200 Xlt=0.600
~ wdg=1 bus=15682-10565419.2 conn=wye Kv=7.9674 Kva=10.0 %R=0.500
~ wdg=2 bus=2716010-10565420.1.4 conn=wye Kv=0.1100 Kva=10.0 %R=0.500
~ wdg=3 bus=2716010-10565420.4.2 conn=wye Kv=0.1100 Kva=10.0 %R=0.500
New Transformer.2716265 phases=3 windings=2 Xhl=1.200
~ wdg=1 bus=15682-10565446.1.2.3 conn=delta Kv=13.8 Kva=112.5 %R=0.500
~ wdg=2 bus=2716265-10565447.1.2.3.4 conn=wye Kv=0.2200 Kva=112.5 %R=0.500
New Transformer.2715989 phases=3 windings=2 Xhl=1.200
~ wdg=1 bus=15682-10565450.1.2.3 conn=delta Kv=13.8 Kva=112.5 %R=0.500
~ wdg=2 bus=2715989-10565451.1.2.3.4 conn=wye Kv=0.2200 Kva=112.5 %R=0.500
New Transformer.2716241 phases=3 windings=2 Xhl=1.200
~ wdg=1 bus=15682-10565452.1.2.3 conn=delta Kv=13.8 Kva=45.0 %R=0.500
~ wdg=2 bus=2716241-10565453.1.2.3.4 conn=wye Kv=0.2200 Kva=45.0 %R=0.500
New Transformer.2716305 phases=1 windings=3 Xhl=1.200 Xht=1.200 Xlt=0.600
~ wdg=1 bus=15682-10565609.3 conn=wye Kv=7.9674 Kva=10.0 %R=0.500
~ wdg=2 bus=2716305-10565609v.1.4 conn=wye Kv=0.1100 Kva=10.0 %R=0.500
~ wdg=3 bus=2716305-10565609v.4.2 conn=wye Kv=0.1100 Kva=10.0 %R=0.500
New Transformer.2716213 phases=1 windings=3 Xhl=1.200 Xht=1.200 Xlt=0.600
~ wdg=1 bus=15682-10565629.2 conn=wye Kv=7.9674 Kva=10.0 %R=0.500
~ wdg=2 bus=2716213-10565629v.1.4 conn=wye Kv=0.1100 Kva=10.0 %R=0.500
~ wdg=3 bus=2716213-10565629v.4.2 conn=wye Kv=0.1100 Kva=10.0 %R=0.500
New Transformer.2716262 phases=3 windings=2 Xhl=1.200
~ wdg=1 bus=15682-10565667.1.2.3 conn=delta Kv=13.8 Kva=45.0 %R=0.500
~ wdg=2 bus=2716262-13066367.1.2.3.4 conn=wye Kv=0.2200 Kva=45.0 %R=0.500
New Transformer.2716143 phases=1 windings=3 Xhl=1.200 Xht=1.200 Xlt=0.600
~ wdg=1 bus=15682-10565745.2 conn=wye Kv=7.9674 Kva=10.0 %R=0.500
~ wdg=2 bus=2716143-10565745v.1.4 conn=wye Kv=0.1100 Kva=10.0 %R=0.500
~ wdg=3 bus=2716143-10565745v.4.2 conn=wye Kv=0.1100 Kva=10.0 %R=0.500
New Transformer.2716292 phases=1 windings=3 Xhl=1.200 Xht=1.200 Xlt=0.600
~ wdg=1 bus=15682-10565813.3 conn=wye Kv=7.9674 Kva=15.0 %R=0.500
~ wdg=2 bus=2716292-10565814.1.4 conn=wye Kv=0.1100 Kva=15.0 %R=0.500
~ wdg=3 bus=2716292-10565814.4.2 conn=wye Kv=0.1100 Kva=15.0 %R=0.500
New Transformer.2716286 phases=3 windings=2 Xhl=1.200
~ wdg=1 bus=15682-10565843.1.2.3 conn=delta Kv=13.8 Kva=45.0 %R=0.500
~ wdg=2 bus=2716286-10565844.1.2.3.4 conn=wye Kv=0.2200 Kva=45.0 %R=0.500
New Transformer.2716437 phases=1 windings=3 Xhl=1.200 Xht=1.200 Xlt=0.600
~ wdg=1 bus=15682-10565847.1 conn=wye Kv=7.9674 Kva=5.0 %R=0.500
~ wdg=2 bus=2716437-10565847v.1.4 conn=wye Kv=0.1100 Kva=5.0 %R=0.500
~ wdg=3 bus=2716437-10565847v.4.2 conn=wye Kv=0.1100 Kva=5.0 %R=0.500
New Transformer.2716095 phases=1 windings=3 Xhl=1.200 Xht=1.200 Xlt=0.600
~ wdg=1 bus=15682-10565857.1 conn=wye Kv=7.9674 Kva=5.0 %R=0.500
~ wdg=2 bus=2716095-10565857v.1.4 conn=wye Kv=0.1100 Kva=5.0 %R=0.500
~ wdg=3 bus=2716095-10565857v.4.2 conn=wye Kv=0.1100 Kva=5.0 %R=0.500
New Transformer.2716137 phases=1 windings=3 Xhl=1.200 Xht=1.200 Xlt=0.600
~ wdg=1 bus=15682-10565863.1 conn=wye Kv=7.9674 Kva=15.0 %R=0.500
~ wdg=2 bus=2716137-10565864.1.4 conn=wye Kv=0.1100 Kva=15.0 %R=0.500
~ wdg=3 bus=2716137-10565864.4.2 conn=wye Kv=0.1100 Kva=15.0 %R=0.500
New Transformer.2716397 phases=1 windings=3 Xhl=1.200 Xht=1.200 Xlt=0.600
~ wdg=1 bus=15682-10565880.3 conn=wye Kv=7.9674 Kva=5.0 %R=0.500
~ wdg=2 bus=2716397-10565880v.1.4 conn=wye Kv=0.1100 Kva=5.0 %R=0.500
~ wdg=3 bus=2716397-10565880v.4.2 conn=wye Kv=0.1100 Kva=5.0 %R=0.500
New Transformer.2716125 phases=1 windings=3 Xhl=1.200 Xht=1.200 Xlt=0.600
~ wdg=1 bus=15682-10565889.3 conn=wye Kv=7.9674 Kva=10.0 %R=0.500
~ wdg=2 bus=2716125-10565890.1.4 conn=wye Kv=0.1100 Kva=10.0 %R=0.500
~ wdg=3 bus=2716125-10565890.4.2 conn=wye Kv=0.1100 Kva=10.0 %R=0.500
New Transformer.2715981 phases=1 windings=3 Xhl=1.200 Xht=1.200 Xlt=0.600
~ wdg=1 bus=15682-10565900.3 conn=wye Kv=7.9674 Kva=10.0 %R=0.500
~ wdg=2 bus=2715981-10565901.1.4 conn=wye Kv=0.1100 Kva=10.0 %R=0.500
~ wdg=3 bus=2715981-10565901.4.2 conn=wye Kv=0.1100 Kva=10.0 %R=0.500
New Transformer.2716425 phases=1 windings=3 Xhl=1.200 Xht=1.200 Xlt=0.600
~ wdg=1 bus=15682-10565902.1 conn=wye Kv=7.9674 Kva=5.0 %R=0.500
~ wdg=2 bus=2716425-10565902v.1.4 conn=wye Kv=0.1100 Kva=5.0 %R=0.500
~ wdg=3 bus=2716425-10565902v.4.2 conn=wye Kv=0.1100 Kva=5.0 %R=0.500
New Transformer.2715979 phases=1 windings=3 Xhl=1.200 Xht=1.200 Xlt=0.600
~ wdg=1 bus=15682-10565915.1 conn=wye Kv=7.9674 Kva=10.0 %R=0.500
~ wdg=2 bus=2715979-10565916.1.4 conn=wye Kv=0.1100 Kva=10.0 %R=0.500
~ wdg=3 bus=2715979-10565916.4.2 conn=wye Kv=0.1100 Kva=10.0 %R=0.500
New Transformer.2716148 phases=1 windings=3 Xhl=1.200 Xht=1.200 Xlt=0.600
~ wdg=1 bus=15682-10565928.2 conn=wye Kv=7.9674 Kva=10.0 %R=0.500
~ wdg=2 bus=2716148-10565929.1.4 conn=wye Kv=0.1100 Kva=10.0 %R=0.500
~ wdg=3 bus=2716148-10565929.4.2 conn=wye Kv=0.1100 Kva=10.0 %R=0.500
New Transformer.2715941 phases=1 windings=3 Xhl=1.200 Xht=1.200 Xlt=0.600
~ wdg=1 bus=15682-10565934.2 conn=wye Kv=7.9674 Kva=10.0 %R=0.500
~ wdg=2 bus=2715941-10565935.1.4 conn=wye Kv=0.1100 Kva=10.0 %R=0.500
~ wdg=3 bus=2715941-10565935.4.2 conn=wye Kv=0.1100 Kva=10.0 %R=0.500
New Transformer.2716278 phases=1 windings=3 Xhl=1.200 Xht=1.200 Xlt=0.600
~ wdg=1 bus=15682-10565975.1 conn=wye Kv=7.9674 Kva=5.0 %R=0.500
~ wdg=2 bus=2716278-10565975v.1.4 conn=wye Kv=0.1100 Kva=5.0 %R=0.500
~ wdg=3 bus=2716278-10565975v.4.2 conn=wye Kv=0.1100 Kva=5.0 %R=0.500
New Transformer.2716149 phases=1 windings=3 Xhl=1.200 Xht=1.200 Xlt=0.600
~ wdg=1 bus=15682-10565977.1 conn=wye Kv=7.9674 Kva=5.0 %R=0.500
~ wdg=2 bus=2716149-10565978.1.4 conn=wye Kv=0.1100 Kva=5.0 %R=0.500
~ wdg=3 bus=2716149-10565978.4.2 conn=wye Kv=0.1100 Kva=5.0 %R=0.500
New Transformer.2716428 phases=1 windings=3 Xhl=1.200 Xht=1.200 Xlt=0.600
~ wdg=1 bus=15682-10566002.1 conn=wye Kv=7.9674 Kva=5.0 %R=0.500
~ wdg=2 bus=2716428-10566002v.1.4 conn=wye Kv=0.1100 Kva=5.0 %R=0.500
~ wdg=3 bus=2716428-10566002v.4.2 conn=wye Kv=0.1100 Kva=5.0 %R=0.500
New Transformer.2716167 phases=1 windings=3 Xhl=1.200 Xht=1.200 Xlt=0.600
~ wdg=1 bus=15682-10566019.2 conn=wye Kv=7.9674 Kva=15.0 %R=0.500
~ wdg=2 bus=2716167-10566020.1.4 conn=wye Kv=0.1100 Kva=15.0 %R=0.500
~ wdg=3 bus=2716167-10566020.4.2 conn=wye Kv=0.1100 Kva=15.0 %R=0.500
New Transformer.2716109 phases=3 windings=2 Xhl=1.200
~ wdg=1 bus=15682-10566080.1.2.3 conn=delta Kv=13.8 Kva=75.0 %R=0.500
~ wdg=2 bus=2716109-10566081.1.2.3.4 conn=wye Kv=0.2200 Kva=75.0 %R=0.500
New Transformer.2715885 phases=1 windings=3 Xhl=1.200 Xht=1.200 Xlt=0.600
~ wdg=1 bus=15682-10566189.1 conn=wye Kv=7.9674 Kva=15.0 %R=0.500
~ wdg=2 bus=2715885-10566190.1.4 conn=wye Kv=0.1100 Kva=15.0 %R=0.500
~ wdg=3 bus=2715885-10566190.4.2 conn=wye Kv=0.1100 Kva=15.0 %R=0.500
New Transformer.2716157 phases=1 windings=3 Xhl=1.200 Xht=1.200 Xlt=0.600
~ wdg=1 bus=15682-10566215.1 conn=wye Kv=7.9674 Kva=5.0 %R=0.500
~ wdg=2 bus=2716157-10566215v.1.4 conn=wye Kv=0.1100 Kva=5.0 %R=0.500
~ wdg=3 bus=2716157-10566215v.4.2 conn=wye Kv=0.1100 Kva=5.0 %R=0.500
New Transformer.2715924 phases=1 windings=3 Xhl=1.200 Xht=1.200 Xlt=0.600
~ wdg=1 bus=15682-10566228.1 conn=wye Kv=7.9674 Kva=10.0 %R=0.500
~ wdg=2 bus=2715924-10566229.1.4 conn=wye Kv=0.1100 Kva=10.0 %R=0.500
~ wdg=3 bus=2715924-10566229.4.2 conn=wye Kv=0.1100 Kva=10.0 %R=0.500
New Transformer.2716476 phases=1 windings=3 Xhl=1.200 Xht=1.200 Xlt=0.600
~ wdg=1 bus=15682-10566236.2 conn=wye Kv=7.9674 Kva=5.0 %R=0.500
~ wdg=2 bus=2716476-10566236v.1.4 conn=wye Kv=0.1100 Kva=5.0 %R=0.500
~ wdg=3 bus=2716476-10566236v.4.2 conn=wye Kv=0.1100 Kva=5.0 %R=0.500
New Transformer.2715967 phases=1 windings=3 Xhl=1.200 Xht=1.200 Xlt=0.600
~ wdg=1 bus=15682-10566250.2 conn=wye Kv=7.9674 Kva=10.0 %R=0.500
~ wdg=2 bus=2715967-10566251.1.4 conn=wye Kv=0.1100 Kva=10.0 %R=0.500
~ wdg=3 bus=2715967-10566251.4.2 conn=wye Kv=0.1100 Kva=10.0 %R=0.500
New Transformer.2716162 phases=1 windings=3 Xhl=1.200 Xht=1.200 Xlt=0.600
~ wdg=1 bus=15682-10566278.3 conn=wye Kv=7.9674 Kva=10.0 %R=0.500
~ wdg=2 bus=2716162-10566279.1.4 conn=wye Kv=0.1100 Kva=10.0 %R=0.500
~ wdg=3 bus=2716162-10566279.4.2 conn=wye Kv=0.1100 Kva=10.0 %R=0.500
New Transformer.2716026 phases=1 windings=3 Xhl=1.200 Xht=1.200 Xlt=0.600
~ wdg=1 bus=15682-10566310.2 conn=wye Kv=7.9674 Kva=5.0 %R=0.500
~ wdg=2 bus=2716026-10566310v.1.4 conn=wye Kv=0.1100 Kva=5.0 %R=0.500
~ wdg=3 bus=2716026-10566310v.4.2 conn=wye Kv=0.1100 Kva=5.0 %R=0.500
New Transformer.2716127 phases=1 windings=3 Xhl=1.200 Xht=1.200 Xlt=0.600
~ wdg=1 bus=15682-10566311.2 conn=wye Kv=7.9674 Kva=5.0 %R=0.500
~ wdg=2 bus=2716127-10566312.1.4 conn=wye Kv=0.1100 Kva=5.0 %R=0.500
~ wdg=3 bus=2716127-10566312.4.2 conn=wye Kv=0.1100 Kva=5.0 %R=0.500
New Transformer.2716320 phases=1 windings=3 Xhl=1.200 Xht=1.200 Xlt=0.600
~ wdg=1 bus=15682-10566322.2 conn=wye Kv=7.9674 Kva=5.0 %R=0.500
~ wdg=2 bus=2716320-10566322v.1.4 conn=wye Kv=0.1100 Kva=5.0 %R=0.500
~ wdg=3 bus=2716320-10566322v.4.2 conn=wye Kv=0.1100 Kva=5.0 %R=0.500
New Transformer.2716061 phases=1 windings=3 Xhl=1.200 Xht=1.200 Xlt=0.600
~ wdg=1 bus=15682-10566375.3 conn=wye Kv=7.9674 Kva=10.0 %R=0.500
~ wdg=2 bus=2716061-10566376.1.4 conn=wye Kv=0.1100 Kva=10.0 %R=0.500
~ wdg=3 bus=2716061-10566376.4.2 conn=wye Kv=0.1100 Kva=10.0 %R=0.500
New Transformer.2716385 phases=1 windings=3 Xhl=1.200 Xht=1.200 Xlt=0.600
~ wdg=1 bus=15682-10566402.3 conn=wye Kv=7.9674 Kva=15.0 %R=0.500
~ wdg=2 bus=2716385-10566403.1.4 conn=wye Kv=0.1100 Kva=15.0 %R=0.500
~ wdg=3 bus=2716385-10566403.4.2 conn=wye Kv=0.1100 Kva=15.0 %R=0.500
New Transformer.2716077 phases=3 windings=2 Xhl=1.200
~ wdg=1 bus=15682-10566418.1.2.3 conn=delta Kv=13.8 Kva=30.0 %R=0.500
~ wdg=2 bus=2716077-10566419.1.2.3.4 conn=wye Kv=0.2200 Kva=30.0 %R=0.500
New Transformer.2716248 phases=3 windings=2 Xhl=1.200
~ wdg=1 bus=15682-10566427.1.2.3 conn=delta Kv=13.8 Kva=45.0 %R=0.500
~ wdg=2 bus=2716248-10566428.1.2.3.4 conn=wye Kv=0.2200 Kva=45.0 %R=0.500
New Transformer.2716486 phases=3 windings=2 Xhl=1.200
~ wdg=1 bus=15682-10566430.1.2.3 conn=delta Kv=13.8 Kva=75.0 %R=0.500
~ wdg=2 bus=2716486-10566431.1.2.3.4 conn=wye Kv=0.2200 Kva=75.0 %R=0.500
New Transformer.2716331 phases=1 windings=3 Xhl=1.200 Xht=1.200 Xlt=0.600
~ wdg=1 bus=15682-10566432.1 conn=wye Kv=7.9674 Kva=10.0 %R=0.500
~ wdg=2 bus=2716331-10566433.1.4 conn=wye Kv=0.1100 Kva=10.0 %R=0.500
~ wdg=3 bus=2716331-10566433.4.2 conn=wye Kv=0.1100 Kva=10.0 %R=0.500
New Transformer.2716101 phases=1 windings=3 Xhl=1.200 Xht=1.200 Xlt=0.600
...